# MT3DMS benchmark test problem #6
# transport in 2-D radial flow field during an injection/withdrawl cycle
# Basic Package file created on 2/19/2019 by ModelMuse version 3.10.0.42.
FREE  # OPTIONS
CONSTANT        1 # IBOUND Layer 1
  9.999900000000E+002  # HNOFLO
INTERNAL 1.0 (FREE)       12 # STRT Layer 1
  1.355536000000E+006   1.350956000000E+006   1.346399000000E+006   1.341892000000E+006   1.337467000000E+006   1.333162000000E+006   1.329020000000E+006   1.325090000000E+006   1.321425000000E+006   1.318083000000E+006 
  1.315123000000E+006   1.312602000000E+006   1.310575000000E+006   1.309090000000E+006   1.308184000000E+006   1.307879000000E+006   1.308184000000E+006   1.309090000000E+006   1.310575000000E+006   1.312602000000E+006 
  1.315123000000E+006   1.318083000000E+006   1.321425000000E+006   1.325090000000E+006   1.329020000000E+006   1.333162000000E+006   1.337467000000E+006   1.341892000000E+006   1.346399000000E+006   1.350956000000E+006 
  1.355536000000E+006 
  1.350956000000E+006   1.346049000000E+006   1.341142000000E+006   1.336264000000E+006   1.331448000000E+006   1.326735000000E+006   1.322174000000E+006   1.317819000000E+006   1.313734000000E+006   1.309985000000E+006 
  1.306645000000E+006   1.303787000000E+006   1.301478000000E+006   1.299780000000E+006   1.298741000000E+006   1.298391000000E+006   1.298741000000E+006   1.299780000000E+006   1.301478000000E+006   1.303787000000E+006 
  1.306645000000E+006   1.309985000000E+006   1.313734000000E+006   1.317819000000E+006   1.322174000000E+006   1.326735000000E+006   1.331448000000E+006   1.336264000000E+006   1.341142000000E+006   1.346049000000E+006 
  1.350956000000E+006 
  1.346399000000E+006   1.341142000000E+006   1.335858000000E+006   1.330575000000E+006   1.325327000000E+006   1.320159000000E+006   1.315123000000E+006   1.310281000000E+006   1.305706000000E+006   1.301478000000E+006 
  1.297686000000E+006   1.294420000000E+006   1.291768000000E+006   1.289809000000E+006   1.288607000000E+006   1.288201000000E+006   1.288607000000E+006   1.289809000000E+006   1.291768000000E+006   1.294420000000E+006 
  1.297686000000E+006   1.301478000000E+006   1.305706000000E+006   1.310281000000E+006   1.315123000000E+006   1.320159000000E+006   1.325327000000E+006   1.330575000000E+006   1.335858000000E+006   1.341142000000E+006 
  1.346399000000E+006 
  1.341892000000E+006   1.336264000000E+006   1.330575000000E+006   1.324852000000E+006   1.319129000000E+006   1.313452000000E+006   1.307879000000E+006   1.302477000000E+006   1.297331000000E+006   1.292536000000E+006 
  1.288201000000E+006   1.284438000000E+006   1.281363000000E+006   1.279078000000E+006   1.277670000000E+006   1.277194000000E+006   1.277670000000E+006   1.279078000000E+006   1.281363000000E+006   1.284438000000E+006 
  1.288201000000E+006   1.292536000000E+006   1.297331000000E+006   1.302477000000E+006   1.307879000000E+006   1.313452000000E+006   1.319129000000E+006   1.324852000000E+006   1.330575000000E+006   1.336264000000E+006 
  1.341892000000E+006 
  1.337467000000E+006   1.331448000000E+006   1.325327000000E+006   1.319129000000E+006   1.312887000000E+006   1.306645000000E+006   1.300465000000E+006   1.294420000000E+006   1.288607000000E+006   1.283137000000E+006 
  1.278143000000E+006   1.273768000000E+006   1.270162000000E+006   1.267466000000E+006   1.265795000000E+006   1.265229000000E+006   1.265795000000E+006   1.267466000000E+006   1.270162000000E+006   1.273768000000E+006 
  1.278143000000E+006   1.283137000000E+006   1.288607000000E+006   1.294420000000E+006   1.300465000000E+006   1.306645000000E+006   1.312887000000E+006   1.319129000000E+006   1.325327000000E+006   1.331448000000E+006 
  1.337467000000E+006 
  1.333162000000E+006   1.326735000000E+006   1.320159000000E+006   1.313452000000E+006   1.306645000000E+006   1.299780000000E+006   1.292917000000E+006   1.286136000000E+006   1.279541000000E+006   1.273264000000E+006 
  1.267466000000E+006   1.262328000000E+006   1.258048000000E+006   1.254820000000E+006   1.252807000000E+006   1.252123000000E+006   1.252807000000E+006   1.254820000000E+006   1.258048000000E+006   1.262328000000E+006 
  1.267466000000E+006   1.273264000000E+006   1.279541000000E+006   1.286136000000E+006   1.292917000000E+006   1.299780000000E+006   1.306645000000E+006   1.313452000000E+006   1.320159000000E+006   1.326735000000E+006 
  1.333162000000E+006 
  1.329020000000E+006   1.322174000000E+006   1.315123000000E+006   1.307879000000E+006   1.300465000000E+006   1.292917000000E+006   1.285293000000E+006   1.277670000000E+006   1.270162000000E+006   1.262918000000E+006 
  1.256130000000E+006   1.250029000000E+006   1.244879000000E+006   1.240949000000E+006   1.238479000000E+006   1.237635000000E+006   1.238479000000E+006   1.240949000000E+006   1.244879000000E+006   1.250029000000E+006 
  1.256130000000E+006   1.262918000000E+006   1.270162000000E+006   1.277670000000E+006   1.285293000000E+006   1.292917000000E+006   1.300465000000E+006   1.307879000000E+006   1.315123000000E+006   1.322174000000E+006 
  1.329020000000E+006 
  1.325090000000E+006   1.317819000000E+006   1.310281000000E+006   1.302477000000E+006   1.294420000000E+006   1.286136000000E+006   1.277670000000E+006   1.269096000000E+006   1.260526000000E+006   1.252123000000E+006 
  1.244111000000E+006   1.236781000000E+006   1.230485000000E+006   1.225607000000E+006   1.222505000000E+006   1.221439000000E+006   1.222505000000E+006   1.225607000000E+006   1.230485000000E+006   1.236781000000E+006 
  1.244111000000E+006   1.252123000000E+006   1.260526000000E+006   1.269096000000E+006   1.277670000000E+006   1.286136000000E+006   1.294420000000E+006   1.302477000000E+006   1.310281000000E+006   1.317819000000E+006 
  1.325090000000E+006 
  1.321425000000E+006   1.313734000000E+006   1.305706000000E+006   1.297331000000E+006   1.288607000000E+006   1.279541000000E+006   1.270162000000E+006   1.260526000000E+006   1.250734000000E+006   1.240949000000E+006 
  1.231421000000E+006   1.222505000000E+006   1.214671000000E+006   1.208472000000E+006   1.204466000000E+006   1.203077000000E+006   1.204466000000E+006   1.208472000000E+006   1.214671000000E+006   1.222505000000E+006 
  1.231421000000E+006   1.240949000000E+006   1.250734000000E+006   1.260526000000E+006   1.270162000000E+006   1.279541000000E+006   1.288607000000E+006   1.297331000000E+006   1.305706000000E+006   1.313734000000E+006 
  1.321425000000E+006 
  1.318083000000E+006   1.309985000000E+006   1.301478000000E+006   1.292536000000E+006   1.283137000000E+006   1.273264000000E+006   1.262918000000E+006   1.252123000000E+006   1.240949000000E+006   1.229537000000E+006 
  1.218138000000E+006   1.207163000000E+006   1.197222000000E+006   1.189124000000E+006   1.183764000000E+006   1.181880000000E+006   1.183764000000E+006   1.189124000000E+006   1.197222000000E+006   1.207163000000E+006 
  1.218138000000E+006   1.229537000000E+006   1.240949000000E+006   1.252123000000E+006   1.262918000000E+006   1.273264000000E+006   1.283137000000E+006   1.292536000000E+006   1.301478000000E+006   1.309985000000E+006 
  1.318083000000E+006 
  1.315123000000E+006   1.306645000000E+006   1.297686000000E+006   1.288201000000E+006   1.278143000000E+006   1.267466000000E+006   1.256130000000E+006   1.244111000000E+006   1.231421000000E+006   1.218138000000E+006 
  1.204466000000E+006   1.190822000000E+006   1.177950000000E+006   1.167013000000E+006   1.159505000000E+006   1.156809000000E+006   1.159505000000E+006   1.167013000000E+006   1.177950000000E+006   1.190822000000E+006 
  1.204466000000E+006   1.218138000000E+006   1.231421000000E+006   1.244111000000E+006   1.256130000000E+006   1.267466000000E+006   1.278143000000E+006   1.288201000000E+006   1.297686000000E+006   1.306645000000E+006 
  1.315123000000E+006 
  1.312602000000E+006   1.303787000000E+006   1.294420000000E+006   1.284438000000E+006   1.273768000000E+006   1.262328000000E+006   1.250029000000E+006   1.236781000000E+006   1.222505000000E+006   1.207163000000E+006 
  1.190822000000E+006   1.173782000000E+006   1.156809000000E+006   1.141467000000E+006   1.130293000000E+006   1.126124000000E+006   1.130293000000E+006   1.141467000000E+006   1.156809000000E+006   1.173782000000E+006 
  1.190822000000E+006   1.207163000000E+006   1.222505000000E+006   1.236781000000E+006   1.250029000000E+006   1.262328000000E+006   1.273768000000E+006   1.284438000000E+006   1.294420000000E+006   1.303787000000E+006 
  1.312602000000E+006 
  1.310575000000E+006   1.301478000000E+006   1.291768000000E+006   1.281363000000E+006   1.270162000000E+006   1.258048000000E+006   1.244879000000E+006   1.230485000000E+006   1.214671000000E+006   1.197222000000E+006 
  1.177950000000E+006   1.156809000000E+006   1.134223000000E+006   1.111848000000E+006   1.093809000000E+006   1.086565000000E+006   1.093809000000E+006   1.111848000000E+006   1.134223000000E+006   1.156809000000E+006 
  1.177950000000E+006   1.197222000000E+006   1.214671000000E+006   1.230485000000E+006   1.244879000000E+006   1.258048000000E+006   1.270162000000E+006   1.281363000000E+006   1.291768000000E+006   1.301478000000E+006 
  1.310575000000E+006 
  1.309090000000E+006   1.299780000000E+006   1.289809000000E+006   1.279078000000E+006   1.267466000000E+006   1.254820000000E+006   1.240949000000E+006   1.225607000000E+006   1.208472000000E+006   1.189124000000E+006 
  1.167013000000E+006   1.141467000000E+006   1.111848000000E+006   1.078467000000E+006   1.046152000000E+006   1.030810000000E+006   1.046152000000E+006   1.078467000000E+006   1.111848000000E+006   1.141467000000E+006 
  1.167013000000E+006   1.189124000000E+006   1.208472000000E+006   1.225607000000E+006   1.240949000000E+006   1.254820000000E+006   1.267466000000E+006   1.279078000000E+006   1.289809000000E+006   1.299780000000E+006 
  1.309090000000E+006 
  1.308184000000E+006   1.298741000000E+006   1.288607000000E+006   1.277670000000E+006   1.265795000000E+006   1.252807000000E+006   1.238479000000E+006   1.222505000000E+006   1.204466000000E+006   1.183764000000E+006 
  1.159505000000E+006   1.130293000000E+006   1.093809000000E+006   1.046152000000E+006   9.831527000000E+005   9.354954000000E+005   9.831527000000E+005   1.046152000000E+006   1.093809000000E+006   1.130293000000E+006 
  1.159505000000E+006   1.183764000000E+006   1.204466000000E+006   1.222505000000E+006   1.238479000000E+006   1.252807000000E+006   1.265795000000E+006   1.277670000000E+006   1.288607000000E+006   1.298741000000E+006 
  1.308184000000E+006 
  1.307879000000E+006   1.298391000000E+006   1.288201000000E+006   1.277194000000E+006   1.265229000000E+006   1.252123000000E+006   1.237635000000E+006   1.221439000000E+006   1.203077000000E+006   1.181880000000E+006 
  1.156809000000E+006   1.126124000000E+006   1.086565000000E+006   1.030810000000E+006   9.354954000000E+005   1.000000000000E+002   9.354954000000E+005   1.030810000000E+006   1.086565000000E+006   1.126124000000E+006 
  1.156809000000E+006   1.181880000000E+006   1.203077000000E+006   1.221439000000E+006   1.237635000000E+006   1.252123000000E+006   1.265229000000E+006   1.277194000000E+006   1.288201000000E+006   1.298391000000E+006 
  1.307879000000E+006 
  1.308184000000E+006   1.298741000000E+006   1.288607000000E+006   1.277670000000E+006   1.265795000000E+006   1.252807000000E+006   1.238479000000E+006   1.222505000000E+006   1.204466000000E+006   1.183764000000E+006 
  1.159505000000E+006   1.130293000000E+006   1.093809000000E+006   1.046152000000E+006   9.831527000000E+005   9.354954000000E+005   9.831527000000E+005   1.046152000000E+006   1.093809000000E+006   1.130293000000E+006 
  1.159505000000E+006   1.183764000000E+006   1.204466000000E+006   1.222505000000E+006   1.238479000000E+006   1.252807000000E+006   1.265795000000E+006   1.277670000000E+006   1.288607000000E+006   1.298741000000E+006 
  1.308184000000E+006 
  1.309090000000E+006   1.299780000000E+006   1.289809000000E+006   1.279078000000E+006   1.267466000000E+006   1.254820000000E+006   1.240949000000E+006   1.225607000000E+006   1.208472000000E+006   1.189124000000E+006 
  1.167013000000E+006   1.141467000000E+006   1.111848000000E+006   1.078467000000E+006   1.046152000000E+006   1.030810000000E+006   1.046152000000E+006   1.078467000000E+006   1.111848000000E+006   1.141467000000E+006 
  1.167013000000E+006   1.189124000000E+006   1.208472000000E+006   1.225607000000E+006   1.240949000000E+006   1.254820000000E+006   1.267466000000E+006   1.279078000000E+006   1.289809000000E+006   1.299780000000E+006 
  1.309090000000E+006 
  1.310575000000E+006   1.301478000000E+006   1.291768000000E+006   1.281363000000E+006   1.270162000000E+006   1.258048000000E+006   1.244879000000E+006   1.230485000000E+006   1.214671000000E+006   1.197222000000E+006 
  1.177950000000E+006   1.156809000000E+006   1.134223000000E+006   1.111848000000E+006   1.093809000000E+006   1.086565000000E+006   1.093809000000E+006   1.111848000000E+006   1.134223000000E+006   1.156809000000E+006 
  1.177950000000E+006   1.197222000000E+006   1.214671000000E+006   1.230485000000E+006   1.244879000000E+006   1.258048000000E+006   1.270162000000E+006   1.281363000000E+006   1.291768000000E+006   1.301478000000E+006 
  1.310575000000E+006 
  1.312602000000E+006   1.303787000000E+006   1.294420000000E+006   1.284438000000E+006   1.273768000000E+006   1.262328000000E+006   1.250029000000E+006   1.236781000000E+006   1.222505000000E+006   1.207163000000E+006 
  1.190822000000E+006   1.173782000000E+006   1.156809000000E+006   1.141467000000E+006   1.130293000000E+006   1.126124000000E+006   1.130293000000E+006   1.141467000000E+006   1.156809000000E+006   1.173782000000E+006 
  1.190822000000E+006   1.207163000000E+006   1.222505000000E+006   1.236781000000E+006   1.250029000000E+006   1.262328000000E+006   1.273768000000E+006   1.284438000000E+006   1.294420000000E+006   1.303787000000E+006 
  1.312602000000E+006 
  1.315123000000E+006   1.306645000000E+006   1.297686000000E+006   1.288201000000E+006   1.278143000000E+006   1.267466000000E+006   1.256130000000E+006   1.244111000000E+006   1.231421000000E+006   1.218138000000E+006 
  1.204466000000E+006   1.190822000000E+006   1.177950000000E+006   1.167013000000E+006   1.159505000000E+006   1.156809000000E+006   1.159505000000E+006   1.167013000000E+006   1.177950000000E+006   1.190822000000E+006 
  1.204466000000E+006   1.218138000000E+006   1.231421000000E+006   1.244111000000E+006   1.256130000000E+006   1.267466000000E+006   1.278143000000E+006   1.288201000000E+006   1.297686000000E+006   1.306645000000E+006 
  1.315123000000E+006 
  1.318083000000E+006   1.309985000000E+006   1.301478000000E+006   1.292536000000E+006   1.283137000000E+006   1.273264000000E+006   1.262918000000E+006   1.252123000000E+006   1.240949000000E+006   1.229537000000E+006 
  1.218138000000E+006   1.207163000000E+006   1.197222000000E+006   1.189124000000E+006   1.183764000000E+006   1.181880000000E+006   1.183764000000E+006   1.189124000000E+006   1.197222000000E+006   1.207163000000E+006 
  1.218138000000E+006   1.229537000000E+006   1.240949000000E+006   1.252123000000E+006   1.262918000000E+006   1.273264000000E+006   1.283137000000E+006   1.292536000000E+006   1.301478000000E+006   1.309985000000E+006 
  1.318083000000E+006 
  1.321425000000E+006   1.313734000000E+006   1.305706000000E+006   1.297331000000E+006   1.288607000000E+006   1.279541000000E+006   1.270162000000E+006   1.260526000000E+006   1.250734000000E+006   1.240949000000E+006 
  1.231421000000E+006   1.222505000000E+006   1.214671000000E+006   1.208472000000E+006   1.204466000000E+006   1.203077000000E+006   1.204466000000E+006   1.208472000000E+006   1.214671000000E+006   1.222505000000E+006 
  1.231421000000E+006   1.240949000000E+006   1.250734000000E+006   1.260526000000E+006   1.270162000000E+006   1.279541000000E+006   1.288607000000E+006   1.297331000000E+006   1.305706000000E+006   1.313734000000E+006 
  1.321425000000E+006 
  1.325090000000E+006   1.317819000000E+006   1.310281000000E+006   1.302477000000E+006   1.294420000000E+006   1.286136000000E+006   1.277670000000E+006   1.269096000000E+006   1.260526000000E+006   1.252123000000E+006 
  1.244111000000E+006   1.236781000000E+006   1.230485000000E+006   1.225607000000E+006   1.222505000000E+006   1.221439000000E+006   1.222505000000E+006   1.225607000000E+006   1.230485000000E+006   1.236781000000E+006 
  1.244111000000E+006   1.252123000000E+006   1.260526000000E+006   1.269096000000E+006   1.277670000000E+006   1.286136000000E+006   1.294420000000E+006   1.302477000000E+006   1.310281000000E+006   1.317819000000E+006 
  1.325090000000E+006 
  1.329020000000E+006   1.322174000000E+006   1.315123000000E+006   1.307879000000E+006   1.300465000000E+006   1.292917000000E+006   1.285293000000E+006   1.277670000000E+006   1.270162000000E+006   1.262918000000E+006 
  1.256130000000E+006   1.250029000000E+006   1.244879000000E+006   1.240949000000E+006   1.238479000000E+006   1.237635000000E+006   1.238479000000E+006   1.240949000000E+006   1.244879000000E+006   1.250029000000E+006 
  1.256130000000E+006   1.262918000000E+006   1.270162000000E+006   1.277670000000E+006   1.285293000000E+006   1.292917000000E+006   1.300465000000E+006   1.307879000000E+006   1.315123000000E+006   1.322174000000E+006 
  1.329020000000E+006 
  1.333162000000E+006   1.326735000000E+006   1.320159000000E+006   1.313452000000E+006   1.306645000000E+006   1.299780000000E+006   1.292917000000E+006   1.286136000000E+006   1.279541000000E+006   1.273264000000E+006 
  1.267466000000E+006   1.262328000000E+006   1.258048000000E+006   1.254820000000E+006   1.252807000000E+006   1.252123000000E+006   1.252807000000E+006   1.254820000000E+006   1.258048000000E+006   1.262328000000E+006 
  1.267466000000E+006   1.273264000000E+006   1.279541000000E+006   1.286136000000E+006   1.292917000000E+006   1.299780000000E+006   1.306645000000E+006   1.313452000000E+006   1.320159000000E+006   1.326735000000E+006 
  1.333162000000E+006 
  1.337467000000E+006   1.331448000000E+006   1.325327000000E+006   1.319129000000E+006   1.312887000000E+006   1.306645000000E+006   1.300465000000E+006   1.294420000000E+006   1.288607000000E+006   1.283137000000E+006 
  1.278143000000E+006   1.273768000000E+006   1.270162000000E+006   1.267466000000E+006   1.265795000000E+006   1.265229000000E+006   1.265795000000E+006   1.267466000000E+006   1.270162000000E+006   1.273768000000E+006 
  1.278143000000E+006   1.283137000000E+006   1.288607000000E+006   1.294420000000E+006   1.300465000000E+006   1.306645000000E+006   1.312887000000E+006   1.319129000000E+006   1.325327000000E+006   1.331448000000E+006 
  1.337467000000E+006 
  1.341892000000E+006   1.336264000000E+006   1.330575000000E+006   1.324852000000E+006   1.319129000000E+006   1.313452000000E+006   1.307879000000E+006   1.302477000000E+006   1.297331000000E+006   1.292536000000E+006 
  1.288201000000E+006   1.284438000000E+006   1.281363000000E+006   1.279078000000E+006   1.277670000000E+006   1.277194000000E+006   1.277670000000E+006   1.279078000000E+006   1.281363000000E+006   1.284438000000E+006 
  1.288201000000E+006   1.292536000000E+006   1.297331000000E+006   1.302477000000E+006   1.307879000000E+006   1.313452000000E+006   1.319129000000E+006   1.324852000000E+006   1.330575000000E+006   1.336264000000E+006 
  1.341892000000E+006 
  1.346399000000E+006   1.341142000000E+006   1.335858000000E+006   1.330575000000E+006   1.325327000000E+006   1.320159000000E+006   1.315123000000E+006   1.310281000000E+006   1.305706000000E+006   1.301478000000E+006 
  1.297686000000E+006   1.294420000000E+006   1.291768000000E+006   1.289809000000E+006   1.288607000000E+006   1.288201000000E+006   1.288607000000E+006   1.289809000000E+006   1.291768000000E+006   1.294420000000E+006 
  1.297686000000E+006   1.301478000000E+006   1.305706000000E+006   1.310281000000E+006   1.315123000000E+006   1.320159000000E+006   1.325327000000E+006   1.330575000000E+006   1.335858000000E+006   1.341142000000E+006 
  1.346399000000E+006 
  1.350956000000E+006   1.346049000000E+006   1.341142000000E+006   1.336264000000E+006   1.331448000000E+006   1.326735000000E+006   1.322174000000E+006   1.317819000000E+006   1.313734000000E+006   1.309985000000E+006 
  1.306645000000E+006   1.303787000000E+006   1.301478000000E+006   1.299780000000E+006   1.298741000000E+006   1.298391000000E+006   1.298741000000E+006   1.299780000000E+006   1.301478000000E+006   1.303787000000E+006 
  1.306645000000E+006   1.309985000000E+006   1.313734000000E+006   1.317819000000E+006   1.322174000000E+006   1.326735000000E+006   1.331448000000E+006   1.336264000000E+006   1.341142000000E+006   1.346049000000E+006 
  1.350956000000E+006 
  1.355536000000E+006   1.350956000000E+006   1.346399000000E+006   1.341892000000E+006   1.337467000000E+006   1.333162000000E+006   1.329020000000E+006   1.325090000000E+006   1.321425000000E+006   1.318083000000E+006 
  1.315123000000E+006   1.312602000000E+006   1.310575000000E+006   1.309090000000E+006   1.308184000000E+006   1.307879000000E+006   1.308184000000E+006   1.309090000000E+006   1.310575000000E+006   1.312602000000E+006 
  1.315123000000E+006   1.318083000000E+006   1.321425000000E+006   1.325090000000E+006   1.329020000000E+006   1.333162000000E+006   1.337467000000E+006   1.341892000000E+006   1.346399000000E+006   1.350956000000E+006 
  1.355536000000E+006 
