# Discretization File created on 2/19/2019 by ModelMuse version 3.10.0.42.
# MT3DMS benchmark test problem #6
# transport in 2-D radial flow field during an injection/withdrawl cycle
# Upper left corner: (0, 0)
# Lower left corner: (0, -27900)
# Upper right corner: (27900, 0)
# Lower right corner: (27900, -27900)
# Grid angle (in degrees counterclockwise): 0
     1    31    31     2     4     1                  # NLAY, NROW, NCOL, NPER, ITMUNI, LENUNI
     0 # LAYCB
INTERNAL 1.0 (FREE)       12 # DELR
  9.000000000000E+002   9.000000000000E+002   9.000000000000E+002   9.000000000000E+002   9.000000000000E+002   9.000000000000E+002   9.000000000000E+002   9.000000000000E+002   9.000000000000E+002   9.000000000000E+002 
  9.000000000000E+002   9.000000000000E+002   9.000000000000E+002   9.000000000000E+002   9.000000000000E+002   9.000000000000E+002   9.000000000000E+002   9.000000000000E+002   9.000000000000E+002   9.000000000000E+002 
  9.000000000000E+002   9.000000000000E+002   9.000000000000E+002   9.000000000000E+002   9.000000000000E+002   9.000000000000E+002   9.000000000000E+002   9.000000000000E+002   9.000000000000E+002   9.000000000000E+002 
  9.000000000000E+002 
INTERNAL 1.0 (FREE)       12 # DELC
  9.000000000000E+002   9.000000000000E+002   9.000000000000E+002   9.000000000000E+002   9.000000000000E+002   9.000000000000E+002   9.000000000000E+002   9.000000000000E+002   9.000000000000E+002   9.000000000000E+002 
  9.000000000000E+002   9.000000000000E+002   9.000000000000E+002   9.000000000000E+002   9.000000000000E+002   9.000000000000E+002   9.000000000000E+002   9.000000000000E+002   9.000000000000E+002   9.000000000000E+002 
  9.000000000000E+002   9.000000000000E+002   9.000000000000E+002   9.000000000000E+002   9.000000000000E+002   9.000000000000E+002   9.000000000000E+002   9.000000000000E+002   9.000000000000E+002   9.000000000000E+002 
  9.000000000000E+002 
CONSTANT     2.000000000000E+001                      # TOP
CONSTANT     0.000000000000E+000                      # BOTM, Layer 1
  9.125000000000E+002      1  1.000000000000E+000  TR # PERLEN NSTP TSMULT Ss/tr (Stress period 1)
  2.737500000000E+003      1  1.000000000000E+000  TR # PERLEN NSTP TSMULT Ss/tr (Stress period 2)
