# Name File for MT3DMS created on 2/19/2019 by ModelMuse
LIST              16         ImportMt3dmsTob.mls
FT6               10         ImportMt3dmsTob.cbc
FT6               20         ImportMt3dmsTob.dis.grb
FT6               25         ImportMt3dmsTob.bhd
ADV                2         ImportMt3dmsTob.adv
BTN                1         ImportMt3dmsTob.btn
DSP                3         ImportMt3dmsTob.dsp
SSM                4         ImportMt3dmsTob.ssm
GCG                9         ImportMt3dmsTob.gcg
TOB                7         ImportMt3dmsTob.tob
DATA              17         ImportMt3dmsTob.cnf
DATA              21         ImportMt3dmsTob.ocn
DATA              22         ImportMt3dmsTob.mfx
DATA(BINARY)      23         ImportMt3dmsTob.pst
DATA(BINARY)     201         ImportMt3dmsTob_Chem1_4mf6.ucn
DATA             401         ImportMt3dmsTob_Chem1_4mf6.mto
DATA             601         ImportMt3dmsTob_Chem1_4mf6._mas
