BEGIN options
END options

BEGIN dimensions
  MAXBOUND  2
END dimensions

BEGIN period  1
  1 1 1      60.00000000
  1 1 101       0.00000000
END period  1

