BEGIN options
END options

BEGIN griddata
  porosity
    CONSTANT       0.25000000
END griddata

