BEGIN options
  SORBTION
  RATEORDER  one
END options

BEGIN griddata
  rhob
    CONSTANT       0.25000000
  distcoef
    CONSTANT       0.00000000
  rc1
    CONSTANT       0.00200000
  rc2
    CONSTANT       0.00200000
END griddata

