BEGIN options
  SCHEME  upstream
END options

