BEGIN griddata
  strt
    CONSTANT       0.00000000
END griddata

