BEGIN options
END options

BEGIN sources
  
END sources

