# Name File for MODFLOW created on 2/19/2019 by ModelMuse Version 3.10.0.42
LIST             11     ImportedP3.lst
DIS              12     ImportedP3.dis
BAS6             13     ImportedP3.bas
OC               39     ImportedP3.oc 
SIP              35     ImportedP3.sip
BCF6             64     ImportedP3.bcf
LMT6            135     ImportedP3.lmt
CHD              17     ImportedP3.chd
WEL              20     ImportedP3.wel
DATA(BINARY)      9     ImportedP3.cbc
DATA(BINARY)    136     ImportedP3.ftl
DATA             37     ImportedP3.fhd
DATA             38     ImportedP3.fdn
