# Name File for MT3DMS created on 2/19/2019 by ModelMuse
LIST             16    ImportedP3.mls
FTL              10    ImportedP3.ftl
BTN               1    ImportedP3.btn
ADV               2    ImportedP3.adv
DSP               3    ImportedP3.dsp
SSM               4    ImportedP3.ssm
GCG               9    ImportedP3.gcg
DATA             17    ImportedP3.cnf
DATA(BINARY)    201    ImportedP3_Comp1.ucn
DATA            601    ImportedP3_Comp1._mas
DATA            401    ImportedP3_Comp1.mto
