## BTN for MT3DMS, generated by Flopy.
##
         6         1       101         3         1         1
D   M   KG  
T T T T T 
 1 1 1 1 1 1
         0        10                           -1 #delr
         0         1                           -1 #delc
         0        60                           -1 #htop
        31         1         (101E15.6)        -1 #dz layer 1
   1.000000E+01   1.000000E+01   1.000000E+01   1.000000E+01   1.000000E+01   1.000000E+01   1.000000E+01   1.000000E+01   1.000000E+01   1.000000E+01   1.000000E+01   1.000000E+01   1.000000E+01   1.000000E+01   1.000000E+01   1.000000E+01   1.000000E+01   1.000000E+01   1.000000E+01   1.000000E+01   1.000000E+01   1.000000E+01   1.000000E+01   1.000000E+01   1.000000E+01   1.000000E+01   1.000000E+01   1.000000E+01   1.000000E+01   1.000000E+01   1.000000E+01   1.000000E+01   1.000000E+01   1.000000E+01   1.000000E+01   1.000000E+01   1.000000E+01   1.000000E+01   1.000000E+01   1.000000E+01   1.000000E+01   1.000000E+01   1.000000E+01   1.000000E+01   1.000000E+01   1.000000E+01   1.000000E+01   1.000000E+01   1.000000E+01   1.000000E+01   1.000000E+01   1.000000E+01   1.000000E+01   1.000000E+01   1.000000E+01   1.000000E+01   1.000000E+01   1.000000E+01   1.000000E+01   1.000000E+01   1.000000E+01   1.000000E+01   1.000000E+01   1.000000E+01   1.000000E+01   1.000000E+01   1.000000E+01   1.000000E+01   1.000000E+01   1.000000E+01   1.000000E+01   1.000000E+01   1.000000E+01   1.000000E+01   1.000000E+01   1.000000E+01   1.000000E+01   1.000000E+01   1.000000E+01   1.000000E+01   1.000000E+01   1.000000E+01   1.000000E+01   1.000000E+01   1.000000E+01   1.000000E+01   1.000000E+01   1.000000E+01   1.000000E+01   1.000000E+01   1.000000E+01   1.000000E+01   1.000000E+01   1.000000E+01   1.000000E+01   1.000000E+01   1.000000E+01   1.000000E+01   1.000000E+01   1.000000E+01   1.000000E+01
        31         1         (101E15.6)        -1 #dz layer 2
   1.000000E+01   1.000000E+01   1.000000E+01   1.000000E+01   1.000000E+01   1.000000E+01   1.000000E+01   1.000000E+01   1.000000E+01   1.000000E+01   1.000000E+01   1.000000E+01   1.000000E+01   1.000000E+01   1.000000E+01   1.000000E+01   1.000000E+01   1.000000E+01   1.000000E+01   1.000000E+01   1.000000E+01   1.000000E+01   1.000000E+01   1.000000E+01   1.000000E+01   1.000000E+01   1.000000E+01   1.000000E+01   1.000000E+01   1.000000E+01   1.000000E+01   1.000000E+01   1.000000E+01   1.000000E+01   1.000000E+01   1.000000E+01   1.000000E+01   1.000000E+01   1.000000E+01   1.000000E+01   1.000000E+01   1.000000E+01   1.000000E+01   1.000000E+01   1.000000E+01   1.000000E+01   1.000000E+01   1.000000E+01   1.000000E+01   1.000000E+01   1.000000E+01   1.000000E+01   1.000000E+01   1.000000E+01   1.000000E+01   1.000000E+01   1.000000E+01   1.000000E+01   1.000000E+01   1.000000E+01   1.000000E+01   1.000000E+01   1.000000E+01   1.000000E+01   1.000000E+01   1.000000E+01   1.000000E+01   1.000000E+01   1.000000E+01   1.000000E+01   1.000000E+01   1.000000E+01   1.000000E+01   1.000000E+01   1.000000E+01   1.000000E+01   1.000000E+01   1.000000E+01   1.000000E+01   1.000000E+01   1.000000E+01   1.000000E+01   1.000000E+01   1.000000E+01   1.000000E+01   1.000000E+01   1.000000E+01   1.000000E+01   1.000000E+01   1.000000E+01   1.000000E+01   1.000000E+01   1.000000E+01   1.000000E+01   1.000000E+01   1.000000E+01   1.000000E+01   1.000000E+01   1.000000E+01   1.000000E+01   1.000000E+01
        31         1         (101E15.6)        -1 #dz layer 3
   1.000000E+01   1.000000E+01   1.000000E+01   1.000000E+01   1.000000E+01   1.000000E+01   1.000000E+01   1.000000E+01   1.000000E+01   1.000000E+01   1.000000E+01   1.000000E+01   1.000000E+01   1.000000E+01   1.000000E+01   1.000000E+01   1.000000E+01   1.000000E+01   1.000000E+01   1.000000E+01   1.000000E+01   1.000000E+01   1.000000E+01   1.000000E+01   1.000000E+01   1.000000E+01   1.000000E+01   1.000000E+01   1.000000E+01   1.000000E+01   1.000000E+01   1.000000E+01   1.000000E+01   1.000000E+01   1.000000E+01   1.000000E+01   1.000000E+01   1.000000E+01   1.000000E+01   1.000000E+01   1.000000E+01   1.000000E+01   1.000000E+01   1.000000E+01   1.000000E+01   1.000000E+01   1.000000E+01   1.000000E+01   1.000000E+01   1.000000E+01   1.000000E+01   1.000000E+01   1.000000E+01   1.000000E+01   1.000000E+01   1.000000E+01   1.000000E+01   1.000000E+01   1.000000E+01   1.000000E+01   1.000000E+01   1.000000E+01   1.000000E+01   1.000000E+01   1.000000E+01   1.000000E+01   1.000000E+01   1.000000E+01   1.000000E+01   1.000000E+01   1.000000E+01   1.000000E+01   1.000000E+01   1.000000E+01   1.000000E+01   1.000000E+01   1.000000E+01   1.000000E+01   1.000000E+01   1.000000E+01   1.000000E+01   1.000000E+01   1.000000E+01   1.000000E+01   1.000000E+01   1.000000E+01   1.000000E+01   1.000000E+01   1.000000E+01   1.000000E+01   1.000000E+01   1.000000E+01   1.000000E+01   1.000000E+01   1.000000E+01   1.000000E+01   1.000000E+01   1.000000E+01   1.000000E+01   1.000000E+01   1.000000E+01
        31         1         (101E15.6)        -1 #dz layer 4
   1.000000E+01   1.000000E+01   1.000000E+01   1.000000E+01   1.000000E+01   1.000000E+01   1.000000E+01   1.000000E+01   1.000000E+01   1.000000E+01   1.000000E+01   1.000000E+01   1.000000E+01   1.000000E+01   1.000000E+01   1.000000E+01   1.000000E+01   1.000000E+01   1.000000E+01   1.000000E+01   1.000000E+01   1.000000E+01   1.000000E+01   1.000000E+01   1.000000E+01   1.000000E+01   1.000000E+01   1.000000E+01   1.000000E+01   1.000000E+01   1.000000E+01   1.000000E+01   1.000000E+01   1.000000E+01   1.000000E+01   1.000000E+01   1.000000E+01   1.000000E+01   1.000000E+01   1.000000E+01   1.000000E+01   1.000000E+01   1.000000E+01   1.000000E+01   1.000000E+01   1.000000E+01   1.000000E+01   1.000000E+01   1.000000E+01   1.000000E+01   1.000000E+01   1.000000E+01   1.000000E+01   1.000000E+01   1.000000E+01   1.000000E+01   1.000000E+01   1.000000E+01   1.000000E+01   1.000000E+01   1.000000E+01   1.000000E+01   1.000000E+01   1.000000E+01   1.000000E+01   1.000000E+01   1.000000E+01   1.000000E+01   1.000000E+01   1.000000E+01   1.000000E+01   1.000000E+01   1.000000E+01   1.000000E+01   1.000000E+01   1.000000E+01   1.000000E+01   1.000000E+01   1.000000E+01   1.000000E+01   1.000000E+01   1.000000E+01   1.000000E+01   1.000000E+01   1.000000E+01   1.000000E+01   1.000000E+01   1.000000E+01   1.000000E+01   1.000000E+01   1.000000E+01   1.000000E+01   1.000000E+01   1.000000E+01   1.000000E+01   1.000000E+01   1.000000E+01   1.000000E+01   1.000000E+01   1.000000E+01   1.000000E+01
        31         1         (101E15.6)        -1 #dz layer 5
   1.000000E+01   1.000000E+01   1.000000E+01   1.000000E+01   1.000000E+01   1.000000E+01   1.000000E+01   1.000000E+01   1.000000E+01   1.000000E+01   1.000000E+01   1.000000E+01   1.000000E+01   1.000000E+01   1.000000E+01   1.000000E+01   1.000000E+01   1.000000E+01   1.000000E+01   1.000000E+01   1.000000E+01   1.000000E+01   1.000000E+01   1.000000E+01   1.000000E+01   1.000000E+01   1.000000E+01   1.000000E+01   1.000000E+01   1.000000E+01   1.000000E+01   1.000000E+01   1.000000E+01   1.000000E+01   1.000000E+01   1.000000E+01   1.000000E+01   1.000000E+01   1.000000E+01   1.000000E+01   1.000000E+01   1.000000E+01   1.000000E+01   1.000000E+01   1.000000E+01   1.000000E+01   1.000000E+01   1.000000E+01   1.000000E+01   1.000000E+01   1.000000E+01   1.000000E+01   1.000000E+01   1.000000E+01   1.000000E+01   1.000000E+01   1.000000E+01   1.000000E+01   1.000000E+01   1.000000E+01   1.000000E+01   1.000000E+01   1.000000E+01   1.000000E+01   1.000000E+01   1.000000E+01   1.000000E+01   1.000000E+01   1.000000E+01   1.000000E+01   1.000000E+01   1.000000E+01   1.000000E+01   1.000000E+01   1.000000E+01   1.000000E+01   1.000000E+01   1.000000E+01   1.000000E+01   1.000000E+01   1.000000E+01   1.000000E+01   1.000000E+01   1.000000E+01   1.000000E+01   1.000000E+01   1.000000E+01   1.000000E+01   1.000000E+01   1.000000E+01   1.000000E+01   1.000000E+01   1.000000E+01   1.000000E+01   1.000000E+01   1.000000E+01   1.000000E+01   1.000000E+01   1.000000E+01   1.000000E+01   1.000000E+01
        31         1         (101E15.6)        -1 #dz layer 6
   1.000000E+01   1.000000E+01   1.000000E+01   1.000000E+01   1.000000E+01   1.000000E+01   1.000000E+01   1.000000E+01   1.000000E+01   1.000000E+01   1.000000E+01   1.000000E+01   1.000000E+01   1.000000E+01   1.000000E+01   1.000000E+01   1.000000E+01   1.000000E+01   1.000000E+01   1.000000E+01   1.000000E+01   1.000000E+01   1.000000E+01   1.000000E+01   1.000000E+01   1.000000E+01   1.000000E+01   1.000000E+01   1.000000E+01   1.000000E+01   1.000000E+01   1.000000E+01   1.000000E+01   1.000000E+01   1.000000E+01   1.000000E+01   1.000000E+01   1.000000E+01   1.000000E+01   1.000000E+01   1.000000E+01   1.000000E+01   1.000000E+01   1.000000E+01   1.000000E+01   1.000000E+01   1.000000E+01   1.000000E+01   1.000000E+01   1.000000E+01   1.000000E+01   1.000000E+01   1.000000E+01   1.000000E+01   1.000000E+01   1.000000E+01   1.000000E+01   1.000000E+01   1.000000E+01   1.000000E+01   1.000000E+01   1.000000E+01   1.000000E+01   1.000000E+01   1.000000E+01   1.000000E+01   1.000000E+01   1.000000E+01   1.000000E+01   1.000000E+01   1.000000E+01   1.000000E+01   1.000000E+01   1.000000E+01   1.000000E+01   1.000000E+01   1.000000E+01   1.000000E+01   1.000000E+01   1.000000E+01   1.000000E+01   1.000000E+01   1.000000E+01   1.000000E+01   1.000000E+01   1.000000E+01   1.000000E+01   1.000000E+01   1.000000E+01   1.000000E+01   1.000000E+01   1.000000E+01   1.000000E+01   1.000000E+01   1.000000E+01   1.000000E+01   1.000000E+01   1.000000E+01   1.000000E+01   1.000000E+01   1.000000E+01
         0      0.25                           -1 #prsity layer 1
         0      0.25                           -1 #prsity layer 2
         0      0.25                           -1 #prsity layer 3
         0      0.25                           -1 #prsity layer 4
         0      0.25                           -1 #prsity layer 5
         0      0.25                           -1 #prsity layer 6
        31         1           (101I10)        -1 #icbund layer 1
        -1         1         1         1         1         1         1         1         1         1         1         1         1         1         1         1         1         1         1         1         1         1         1         1         1         1         1         1         1         1         1         1         1         1         1         1         1         1         1         1         1         1         1         1         1         1         1         1         1         1         1         1         1         1         1         1         1         1         1         1         1         1         1         1         1         1         1         1         1         1         1         1         1         1         1         1         1         1         1         1         1         1         1         1         1         1         1         1         1         1         1         1         1         1         1         1         1         1         1         1         1
        31         1           (101I10)        -1 #icbund layer 2
        -1         1         1         1         1         1         1         1         1         1         1         1         1         1         1         1         1         1         1         1         1         1         1         1         1         1         1         1         1         1         1         1         1         1         1         1         1         1         1         1         1         1         1         1         1         1         1         1         1         1         1         1         1         1         1         1         1         1         1         1         1         1         1         1         1         1         1         1         1         1         1         1         1         1         1         1         1         1         1         1         1         1         1         1         1         1         1         1         1         1         1         1         1         1         1         1         1         1         1         1         1
        31         1           (101I10)        -1 #icbund layer 3
        -1         1         1         1         1         1         1         1         1         1         1         1         1         1         1         1         1         1         1         1         1         1         1         1         1         1         1         1         1         1         1         1         1         1         1         1         1         1         1         1         1         1         1         1         1         1         1         1         1         1         1         1         1         1         1         1         1         1         1         1         1         1         1         1         1         1         1         1         1         1         1         1         1         1         1         1         1         1         1         1         1         1         1         1         1         1         1         1         1         1         1         1         1         1         1         1         1         1         1         1         1
        31         1           (101I10)        -1 #icbund layer 4
        -1         1         1         1         1         1         1         1         1         1         1         1         1         1         1         1         1         1         1         1         1         1         1         1         1         1         1         1         1         1         1         1         1         1         1         1         1         1         1         1         1         1         1         1         1         1         1         1         1         1         1         1         1         1         1         1         1         1         1         1         1         1         1         1         1         1         1         1         1         1         1         1         1         1         1         1         1         1         1         1         1         1         1         1         1         1         1         1         1         1         1         1         1         1         1         1         1         1         1         1         1
        31         1           (101I10)        -1 #icbund layer 5
        -1         1         1         1         1         1         1         1         1         1         1         1         1         1         1         1         1         1         1         1         1         1         1         1         1         1         1         1         1         1         1         1         1         1         1         1         1         1         1         1         1         1         1         1         1         1         1         1         1         1         1         1         1         1         1         1         1         1         1         1         1         1         1         1         1         1         1         1         1         1         1         1         1         1         1         1         1         1         1         1         1         1         1         1         1         1         1         1         1         1         1         1         1         1         1         1         1         1         1         1         1
        31         1           (101I10)        -1 #icbund layer 6
        -1         1         1         1         1         1         1         1         1         1         1         1         1         1         1         1         1         1         1         1         1         1         1         1         1         1         1         1         1         1         1         1         1         1         1         1         1         1         1         1         1         1         1         1         1         1         1         1         1         1         1         1         1         1         1         1         1         1         1         1         1         1         1         1         1         1         1         1         1         1         1         1         1         1         1         1         1         1         1         1         1         1         1         1         1         1         1         1         1         1         1         1         1         1         1         1         1         1         1         1         1
        31         1         (101E15.6)        -1 #sconc1 layer 1
   1.000000E+03   0.000000E+00   0.000000E+00   0.000000E+00   0.000000E+00   0.000000E+00   0.000000E+00   0.000000E+00   0.000000E+00   0.000000E+00   0.000000E+00   0.000000E+00   0.000000E+00   0.000000E+00   0.000000E+00   0.000000E+00   0.000000E+00   0.000000E+00   0.000000E+00   0.000000E+00   0.000000E+00   0.000000E+00   0.000000E+00   0.000000E+00   0.000000E+00   0.000000E+00   0.000000E+00   0.000000E+00   0.000000E+00   0.000000E+00   0.000000E+00   0.000000E+00   0.000000E+00   0.000000E+00   0.000000E+00   0.000000E+00   0.000000E+00   0.000000E+00   0.000000E+00   0.000000E+00   0.000000E+00   0.000000E+00   0.000000E+00   0.000000E+00   0.000000E+00   0.000000E+00   0.000000E+00   0.000000E+00   0.000000E+00   0.000000E+00   0.000000E+00   0.000000E+00   0.000000E+00   0.000000E+00   0.000000E+00   0.000000E+00   0.000000E+00   0.000000E+00   0.000000E+00   0.000000E+00   0.000000E+00   0.000000E+00   0.000000E+00   0.000000E+00   0.000000E+00   0.000000E+00   0.000000E+00   0.000000E+00   0.000000E+00   0.000000E+00   0.000000E+00   0.000000E+00   0.000000E+00   0.000000E+00   0.000000E+00   0.000000E+00   0.000000E+00   0.000000E+00   0.000000E+00   0.000000E+00   0.000000E+00   0.000000E+00   0.000000E+00   0.000000E+00   0.000000E+00   0.000000E+00   0.000000E+00   0.000000E+00   0.000000E+00   0.000000E+00   0.000000E+00   0.000000E+00   0.000000E+00   0.000000E+00   0.000000E+00   0.000000E+00   0.000000E+00   0.000000E+00   0.000000E+00   0.000000E+00   0.000000E+00
        31         1         (101E15.6)        -1 #sconc1 layer 2
   1.000000E+03   0.000000E+00   0.000000E+00   0.000000E+00   0.000000E+00   0.000000E+00   0.000000E+00   0.000000E+00   0.000000E+00   0.000000E+00   0.000000E+00   0.000000E+00   0.000000E+00   0.000000E+00   0.000000E+00   0.000000E+00   0.000000E+00   0.000000E+00   0.000000E+00   0.000000E+00   0.000000E+00   0.000000E+00   0.000000E+00   0.000000E+00   0.000000E+00   0.000000E+00   0.000000E+00   0.000000E+00   0.000000E+00   0.000000E+00   0.000000E+00   0.000000E+00   0.000000E+00   0.000000E+00   0.000000E+00   0.000000E+00   0.000000E+00   0.000000E+00   0.000000E+00   0.000000E+00   0.000000E+00   0.000000E+00   0.000000E+00   0.000000E+00   0.000000E+00   0.000000E+00   0.000000E+00   0.000000E+00   0.000000E+00   0.000000E+00   0.000000E+00   0.000000E+00   0.000000E+00   0.000000E+00   0.000000E+00   0.000000E+00   0.000000E+00   0.000000E+00   0.000000E+00   0.000000E+00   0.000000E+00   0.000000E+00   0.000000E+00   0.000000E+00   0.000000E+00   0.000000E+00   0.000000E+00   0.000000E+00   0.000000E+00   0.000000E+00   0.000000E+00   0.000000E+00   0.000000E+00   0.000000E+00   0.000000E+00   0.000000E+00   0.000000E+00   0.000000E+00   0.000000E+00   0.000000E+00   0.000000E+00   0.000000E+00   0.000000E+00   0.000000E+00   0.000000E+00   0.000000E+00   0.000000E+00   0.000000E+00   0.000000E+00   0.000000E+00   0.000000E+00   0.000000E+00   0.000000E+00   0.000000E+00   0.000000E+00   0.000000E+00   0.000000E+00   0.000000E+00   0.000000E+00   0.000000E+00   0.000000E+00
        31         1         (101E15.6)        -1 #sconc1 layer 3
   1.000000E+03   0.000000E+00   0.000000E+00   0.000000E+00   0.000000E+00   0.000000E+00   0.000000E+00   0.000000E+00   0.000000E+00   0.000000E+00   0.000000E+00   0.000000E+00   0.000000E+00   0.000000E+00   0.000000E+00   0.000000E+00   0.000000E+00   0.000000E+00   0.000000E+00   0.000000E+00   0.000000E+00   0.000000E+00   0.000000E+00   0.000000E+00   0.000000E+00   0.000000E+00   0.000000E+00   0.000000E+00   0.000000E+00   0.000000E+00   0.000000E+00   0.000000E+00   0.000000E+00   0.000000E+00   0.000000E+00   0.000000E+00   0.000000E+00   0.000000E+00   0.000000E+00   0.000000E+00   0.000000E+00   0.000000E+00   0.000000E+00   0.000000E+00   0.000000E+00   0.000000E+00   0.000000E+00   0.000000E+00   0.000000E+00   0.000000E+00   0.000000E+00   0.000000E+00   0.000000E+00   0.000000E+00   0.000000E+00   0.000000E+00   0.000000E+00   0.000000E+00   0.000000E+00   0.000000E+00   0.000000E+00   0.000000E+00   0.000000E+00   0.000000E+00   0.000000E+00   0.000000E+00   0.000000E+00   0.000000E+00   0.000000E+00   0.000000E+00   0.000000E+00   0.000000E+00   0.000000E+00   0.000000E+00   0.000000E+00   0.000000E+00   0.000000E+00   0.000000E+00   0.000000E+00   0.000000E+00   0.000000E+00   0.000000E+00   0.000000E+00   0.000000E+00   0.000000E+00   0.000000E+00   0.000000E+00   0.000000E+00   0.000000E+00   0.000000E+00   0.000000E+00   0.000000E+00   0.000000E+00   0.000000E+00   0.000000E+00   0.000000E+00   0.000000E+00   0.000000E+00   0.000000E+00   0.000000E+00   0.000000E+00
        31         1         (101E15.6)        -1 #sconc1 layer 4
   1.000000E+03   0.000000E+00   0.000000E+00   0.000000E+00   0.000000E+00   0.000000E+00   0.000000E+00   0.000000E+00   0.000000E+00   0.000000E+00   0.000000E+00   0.000000E+00   0.000000E+00   0.000000E+00   0.000000E+00   0.000000E+00   0.000000E+00   0.000000E+00   0.000000E+00   0.000000E+00   0.000000E+00   0.000000E+00   0.000000E+00   0.000000E+00   0.000000E+00   0.000000E+00   0.000000E+00   0.000000E+00   0.000000E+00   0.000000E+00   0.000000E+00   0.000000E+00   0.000000E+00   0.000000E+00   0.000000E+00   0.000000E+00   0.000000E+00   0.000000E+00   0.000000E+00   0.000000E+00   0.000000E+00   0.000000E+00   0.000000E+00   0.000000E+00   0.000000E+00   0.000000E+00   0.000000E+00   0.000000E+00   0.000000E+00   0.000000E+00   0.000000E+00   0.000000E+00   0.000000E+00   0.000000E+00   0.000000E+00   0.000000E+00   0.000000E+00   0.000000E+00   0.000000E+00   0.000000E+00   0.000000E+00   0.000000E+00   0.000000E+00   0.000000E+00   0.000000E+00   0.000000E+00   0.000000E+00   0.000000E+00   0.000000E+00   0.000000E+00   0.000000E+00   0.000000E+00   0.000000E+00   0.000000E+00   0.000000E+00   0.000000E+00   0.000000E+00   0.000000E+00   0.000000E+00   0.000000E+00   0.000000E+00   0.000000E+00   0.000000E+00   0.000000E+00   0.000000E+00   0.000000E+00   0.000000E+00   0.000000E+00   0.000000E+00   0.000000E+00   0.000000E+00   0.000000E+00   0.000000E+00   0.000000E+00   0.000000E+00   0.000000E+00   0.000000E+00   0.000000E+00   0.000000E+00   0.000000E+00   0.000000E+00
        31         1         (101E15.6)        -1 #sconc1 layer 5
   1.000000E+03   0.000000E+00   0.000000E+00   0.000000E+00   0.000000E+00   0.000000E+00   0.000000E+00   0.000000E+00   0.000000E+00   0.000000E+00   0.000000E+00   0.000000E+00   0.000000E+00   0.000000E+00   0.000000E+00   0.000000E+00   0.000000E+00   0.000000E+00   0.000000E+00   0.000000E+00   0.000000E+00   0.000000E+00   0.000000E+00   0.000000E+00   0.000000E+00   0.000000E+00   0.000000E+00   0.000000E+00   0.000000E+00   0.000000E+00   0.000000E+00   0.000000E+00   0.000000E+00   0.000000E+00   0.000000E+00   0.000000E+00   0.000000E+00   0.000000E+00   0.000000E+00   0.000000E+00   0.000000E+00   0.000000E+00   0.000000E+00   0.000000E+00   0.000000E+00   0.000000E+00   0.000000E+00   0.000000E+00   0.000000E+00   0.000000E+00   0.000000E+00   0.000000E+00   0.000000E+00   0.000000E+00   0.000000E+00   0.000000E+00   0.000000E+00   0.000000E+00   0.000000E+00   0.000000E+00   0.000000E+00   0.000000E+00   0.000000E+00   0.000000E+00   0.000000E+00   0.000000E+00   0.000000E+00   0.000000E+00   0.000000E+00   0.000000E+00   0.000000E+00   0.000000E+00   0.000000E+00   0.000000E+00   0.000000E+00   0.000000E+00   0.000000E+00   0.000000E+00   0.000000E+00   0.000000E+00   0.000000E+00   0.000000E+00   0.000000E+00   0.000000E+00   0.000000E+00   0.000000E+00   0.000000E+00   0.000000E+00   0.000000E+00   0.000000E+00   0.000000E+00   0.000000E+00   0.000000E+00   0.000000E+00   0.000000E+00   0.000000E+00   0.000000E+00   0.000000E+00   0.000000E+00   0.000000E+00   0.000000E+00
        31         1         (101E15.6)        -1 #sconc1 layer 6
   1.000000E+03   0.000000E+00   0.000000E+00   0.000000E+00   0.000000E+00   0.000000E+00   0.000000E+00   0.000000E+00   0.000000E+00   0.000000E+00   0.000000E+00   0.000000E+00   0.000000E+00   0.000000E+00   0.000000E+00   0.000000E+00   0.000000E+00   0.000000E+00   0.000000E+00   0.000000E+00   0.000000E+00   0.000000E+00   0.000000E+00   0.000000E+00   0.000000E+00   0.000000E+00   0.000000E+00   0.000000E+00   0.000000E+00   0.000000E+00   0.000000E+00   0.000000E+00   0.000000E+00   0.000000E+00   0.000000E+00   0.000000E+00   0.000000E+00   0.000000E+00   0.000000E+00   0.000000E+00   0.000000E+00   0.000000E+00   0.000000E+00   0.000000E+00   0.000000E+00   0.000000E+00   0.000000E+00   0.000000E+00   0.000000E+00   0.000000E+00   0.000000E+00   0.000000E+00   0.000000E+00   0.000000E+00   0.000000E+00   0.000000E+00   0.000000E+00   0.000000E+00   0.000000E+00   0.000000E+00   0.000000E+00   0.000000E+00   0.000000E+00   0.000000E+00   0.000000E+00   0.000000E+00   0.000000E+00   0.000000E+00   0.000000E+00   0.000000E+00   0.000000E+00   0.000000E+00   0.000000E+00   0.000000E+00   0.000000E+00   0.000000E+00   0.000000E+00   0.000000E+00   0.000000E+00   0.000000E+00   0.000000E+00   0.000000E+00   0.000000E+00   0.000000E+00   0.000000E+00   0.000000E+00   0.000000E+00   0.000000E+00   0.000000E+00   0.000000E+00   0.000000E+00   0.000000E+00   0.000000E+00   0.000000E+00   0.000000E+00   0.000000E+00   0.000000E+00   0.000000E+00   0.000000E+00   0.000000E+00   0.000000E+00
     1E+30  1.00E-02
         1         0         0         0         T
         0
         0         1
         T         1
       200        10         1                    # PERLEN, NSTP, TSMULT 
        50     50000         1         0          # DT0, MXSTRN, TTSMULT, TTSMAX
       200        10         1
        50     50000         1         0
       200        10         1
        50     50000         1         0
