# Name file for MT3DMS, generated by Flopy version 3.2.10.
LIST              16      p01SpatialStresses.list
#FTL               10      p01SpatialStresses.ftl 
#SSM               34      p01SpatialStresses.ssm
FT6               21      p01SpatialStresses.dis.grb
FT6               22      p01SpatialStresses.bud
FT6               23      p01SpatialStresses.hds
SSM               34      p01SpatialStresses_rch_evt_list.ssm 
BTN               31      p01SpatialStresses.btn 
ADV               32      p01SpatialStresses.adv 
DSP               33      p01SpatialStresses.dsp 
RCT               36      p01SpatialStresses.rct 
GCG               35      p01SpatialStresses.gcg 
DATA(BINARY)     201      p01SpatialStresses_4mf6.ucn
DATA             401      p01SpatialStresses_4mf6.mto
DATA             601      p01SpatialStresses_4mf6._mas
