# MT3DMS benchmark test problem #4
# 2D transport in a diagonal uniform flow field
# Initial Conditions Package file created on 2/19/2019 by ModelMuse version 3.10.0.42.
BEGIN OPTIONS
END OPTIONS

BEGIN GRIDDATA
  STRT LAYERED
    INTERNAL IPRN     12 # STRT Layer 1
       -4.900000000000E+000  -5.000000000000E+000  -5.100000000000E+000  -5.200000000000E+000  -5.300000000000E+000  -5.400000000000E+000  -5.500000000000E+000  -5.600000000000E+000  -5.700000000000E+000  -5.800000000000E+000 
       -5.900000000000E+000  -6.000000000000E+000  -6.100000000000E+000  -6.200000000000E+000  -6.300000000000E+000  -6.400000000000E+000  -6.500000000000E+000  -6.600000000000E+000  -6.700000000000E+000  -6.800000000000E+000 
       -6.900000000000E+000  -7.000000000000E+000  -7.100000000000E+000  -7.200000000000E+000  -7.300000000000E+000  -7.400000000000E+000  -7.500000000000E+000  -7.600000000000E+000  -7.700000000000E+000  -7.800000000000E+000 
       -7.900000000000E+000  -8.000000000000E+000  -8.100000000000E+000  -8.200000000000E+000  -8.300000000000E+000  -8.400000000000E+000  -8.500000000000E+000  -8.600000000000E+000  -8.700000000000E+000  -8.800000000000E+000 
       -8.900000000000E+000  -9.000000000000E+000  -9.100000000000E+000  -9.200000000000E+000  -9.300000000000E+000  -9.400000000000E+000  -9.500000000000E+000  -9.600000000000E+000  -9.700000000000E+000  -9.800000000000E+000 
       -9.900000000000E+000  -1.000000000000E+001  -1.010000000000E+001  -1.020000000000E+001  -1.030000000000E+001  -1.040000000000E+001  -1.050000000000E+001  -1.060000000000E+001  -1.070000000000E+001  -1.080000000000E+001 
       -1.090000000000E+001  -1.100000000000E+001  -1.110000000000E+001  -1.120000000000E+001  -1.130000000000E+001  -1.140000000000E+001  -1.150000000000E+001  -1.160000000000E+001  -1.170000000000E+001  -1.180000000000E+001 
       -1.190000000000E+001  -1.200000000000E+001  -1.210000000000E+001  -1.220000000000E+001  -1.230000000000E+001  -1.240000000000E+001  -1.250000000000E+001  -1.260000000000E+001  -1.270000000000E+001  -1.280000000000E+001 
       -1.290000000000E+001  -1.300000000000E+001  -1.310000000000E+001  -1.320000000000E+001  -1.330000000000E+001  -1.340000000000E+001  -1.350000000000E+001  -1.360000000000E+001  -1.370000000000E+001  -1.380000000000E+001 
       -1.390000000000E+001  -1.400000000000E+001  -1.410000000000E+001  -1.420000000000E+001  -1.430000000000E+001  -1.440000000000E+001  -1.450000000000E+001  -1.460000000000E+001  -1.470000000000E+001  -1.480000000000E+001 
       -4.800000000000E+000  -4.900000000000E+000  -5.000000000000E+000  -5.100000000000E+000  -5.200000000000E+000  -5.300000000000E+000  -5.400000000000E+000  -5.500000000000E+000  -5.600000000000E+000  -5.700000000000E+000 
       -5.800000000000E+000  -5.900000000000E+000  -6.000000000000E+000  -6.100000000000E+000  -6.200000000000E+000  -6.300000000000E+000  -6.400000000000E+000  -6.500000000000E+000  -6.600000000000E+000  -6.700000000000E+000 
       -6.800000000000E+000  -6.900000000000E+000  -7.000000000000E+000  -7.100000000000E+000  -7.200000000000E+000  -7.300000000000E+000  -7.400000000000E+000  -7.500000000000E+000  -7.600000000000E+000  -7.700000000000E+000 
       -7.800000000000E+000  -7.900000000000E+000  -8.000000000000E+000  -8.100000000000E+000  -8.200000000000E+000  -8.300000000000E+000  -8.400000000000E+000  -8.500000000000E+000  -8.600000000000E+000  -8.700000000000E+000 
       -8.800000000000E+000  -8.900000000000E+000  -9.000000000000E+000  -9.100000000000E+000  -9.200000000000E+000  -9.300000000000E+000  -9.400000000000E+000  -9.500000000000E+000  -9.600000000000E+000  -9.700000000000E+000 
       -9.800000000000E+000  -9.900000000000E+000  -1.000000000000E+001  -1.010000000000E+001  -1.020000000000E+001  -1.030000000000E+001  -1.040000000000E+001  -1.050000000000E+001  -1.060000000000E+001  -1.070000000000E+001 
       -1.080000000000E+001  -1.090000000000E+001  -1.100000000000E+001  -1.110000000000E+001  -1.120000000000E+001  -1.130000000000E+001  -1.140000000000E+001  -1.150000000000E+001  -1.160000000000E+001  -1.170000000000E+001 
       -1.180000000000E+001  -1.190000000000E+001  -1.200000000000E+001  -1.210000000000E+001  -1.220000000000E+001  -1.230000000000E+001  -1.240000000000E+001  -1.250000000000E+001  -1.260000000000E+001  -1.270000000000E+001 
       -1.280000000000E+001  -1.290000000000E+001  -1.300000000000E+001  -1.310000000000E+001  -1.320000000000E+001  -1.330000000000E+001  -1.340000000000E+001  -1.350000000000E+001  -1.360000000000E+001  -1.370000000000E+001 
       -1.380000000000E+001  -1.390000000000E+001  -1.400000000000E+001  -1.410000000000E+001  -1.420000000000E+001  -1.430000000000E+001  -1.440000000000E+001  -1.450000000000E+001  -1.460000000000E+001  -1.470000000000E+001 
       -4.700000000000E+000  -4.800000000000E+000  -4.900000000000E+000  -5.000000000000E+000  -5.100000000000E+000  -5.200000000000E+000  -5.300000000000E+000  -5.400000000000E+000  -5.500000000000E+000  -5.600000000000E+000 
       -5.700000000000E+000  -5.800000000000E+000  -5.900000000000E+000  -6.000000000000E+000  -6.100000000000E+000  -6.200000000000E+000  -6.300000000000E+000  -6.400000000000E+000  -6.500000000000E+000  -6.600000000000E+000 
       -6.700000000000E+000  -6.800000000000E+000  -6.900000000000E+000  -7.000000000000E+000  -7.100000000000E+000  -7.200000000000E+000  -7.300000000000E+000  -7.400000000000E+000  -7.500000000000E+000  -7.600000000000E+000 
       -7.700000000000E+000  -7.800000000000E+000  -7.900000000000E+000  -8.000000000000E+000  -8.100000000000E+000  -8.200000000000E+000  -8.300000000000E+000  -8.400000000000E+000  -8.500000000000E+000  -8.600000000000E+000 
       -8.700000000000E+000  -8.800000000000E+000  -8.900000000000E+000  -9.000000000000E+000  -9.100000000000E+000  -9.200000000000E+000  -9.300000000000E+000  -9.400000000000E+000  -9.500000000000E+000  -9.600000000000E+000 
       -9.700000000000E+000  -9.800000000000E+000  -9.900000000000E+000  -1.000000000000E+001  -1.010000000000E+001  -1.020000000000E+001  -1.030000000000E+001  -1.040000000000E+001  -1.050000000000E+001  -1.060000000000E+001 
       -1.070000000000E+001  -1.080000000000E+001  -1.090000000000E+001  -1.100000000000E+001  -1.110000000000E+001  -1.120000000000E+001  -1.130000000000E+001  -1.140000000000E+001  -1.150000000000E+001  -1.160000000000E+001 
       -1.170000000000E+001  -1.180000000000E+001  -1.190000000000E+001  -1.200000000000E+001  -1.210000000000E+001  -1.220000000000E+001  -1.230000000000E+001  -1.240000000000E+001  -1.250000000000E+001  -1.260000000000E+001 
       -1.270000000000E+001  -1.280000000000E+001  -1.290000000000E+001  -1.300000000000E+001  -1.310000000000E+001  -1.320000000000E+001  -1.330000000000E+001  -1.340000000000E+001  -1.350000000000E+001  -1.360000000000E+001 
       -1.370000000000E+001  -1.380000000000E+001  -1.390000000000E+001  -1.400000000000E+001  -1.410000000000E+001  -1.420000000000E+001  -1.430000000000E+001  -1.440000000000E+001  -1.450000000000E+001  -1.460000000000E+001 
       -4.600000000000E+000  -4.700000000000E+000  -4.800000000000E+000  -4.900000000000E+000  -5.000000000000E+000  -5.100000000000E+000  -5.200000000000E+000  -5.300000000000E+000  -5.400000000000E+000  -5.500000000000E+000 
       -5.600000000000E+000  -5.700000000000E+000  -5.800000000000E+000  -5.900000000000E+000  -6.000000000000E+000  -6.100000000000E+000  -6.200000000000E+000  -6.300000000000E+000  -6.400000000000E+000  -6.500000000000E+000 
       -6.600000000000E+000  -6.700000000000E+000  -6.800000000000E+000  -6.900000000000E+000  -7.000000000000E+000  -7.100000000000E+000  -7.200000000000E+000  -7.300000000000E+000  -7.400000000000E+000  -7.500000000000E+000 
       -7.600000000000E+000  -7.700000000000E+000  -7.800000000000E+000  -7.900000000000E+000  -8.000000000000E+000  -8.100000000000E+000  -8.200000000000E+000  -8.300000000000E+000  -8.400000000000E+000  -8.500000000000E+000 
       -8.600000000000E+000  -8.700000000000E+000  -8.800000000000E+000  -8.900000000000E+000  -9.000000000000E+000  -9.100000000000E+000  -9.200000000000E+000  -9.300000000000E+000  -9.400000000000E+000  -9.500000000000E+000 
       -9.600000000000E+000  -9.700000000000E+000  -9.800000000000E+000  -9.900000000000E+000  -1.000000000000E+001  -1.010000000000E+001  -1.020000000000E+001  -1.030000000000E+001  -1.040000000000E+001  -1.050000000000E+001 
       -1.060000000000E+001  -1.070000000000E+001  -1.080000000000E+001  -1.090000000000E+001  -1.100000000000E+001  -1.110000000000E+001  -1.120000000000E+001  -1.130000000000E+001  -1.140000000000E+001  -1.150000000000E+001 
       -1.160000000000E+001  -1.170000000000E+001  -1.180000000000E+001  -1.190000000000E+001  -1.200000000000E+001  -1.210000000000E+001  -1.220000000000E+001  -1.230000000000E+001  -1.240000000000E+001  -1.250000000000E+001 
       -1.260000000000E+001  -1.270000000000E+001  -1.280000000000E+001  -1.290000000000E+001  -1.300000000000E+001  -1.310000000000E+001  -1.320000000000E+001  -1.330000000000E+001  -1.340000000000E+001  -1.350000000000E+001 
       -1.360000000000E+001  -1.370000000000E+001  -1.380000000000E+001  -1.390000000000E+001  -1.400000000000E+001  -1.410000000000E+001  -1.420000000000E+001  -1.430000000000E+001  -1.440000000000E+001  -1.450000000000E+001 
       -4.500000000000E+000  -4.600000000000E+000  -4.700000000000E+000  -4.800000000000E+000  -4.900000000000E+000  -5.000000000000E+000  -5.100000000000E+000  -5.200000000000E+000  -5.300000000000E+000  -5.400000000000E+000 
       -5.500000000000E+000  -5.600000000000E+000  -5.700000000000E+000  -5.800000000000E+000  -5.900000000000E+000  -6.000000000000E+000  -6.100000000000E+000  -6.200000000000E+000  -6.300000000000E+000  -6.400000000000E+000 
       -6.500000000000E+000  -6.600000000000E+000  -6.700000000000E+000  -6.800000000000E+000  -6.900000000000E+000  -7.000000000000E+000  -7.100000000000E+000  -7.200000000000E+000  -7.300000000000E+000  -7.400000000000E+000 
       -7.500000000000E+000  -7.600000000000E+000  -7.700000000000E+000  -7.800000000000E+000  -7.900000000000E+000  -8.000000000000E+000  -8.100000000000E+000  -8.200000000000E+000  -8.300000000000E+000  -8.400000000000E+000 
       -8.500000000000E+000  -8.600000000000E+000  -8.700000000000E+000  -8.800000000000E+000  -8.900000000000E+000  -9.000000000000E+000  -9.100000000000E+000  -9.200000000000E+000  -9.300000000000E+000  -9.400000000000E+000 
       -9.500000000000E+000  -9.600000000000E+000  -9.700000000000E+000  -9.800000000000E+000  -9.900000000000E+000  -1.000000000000E+001  -1.010000000000E+001  -1.020000000000E+001  -1.030000000000E+001  -1.040000000000E+001 
       -1.050000000000E+001  -1.060000000000E+001  -1.070000000000E+001  -1.080000000000E+001  -1.090000000000E+001  -1.100000000000E+001  -1.110000000000E+001  -1.120000000000E+001  -1.130000000000E+001  -1.140000000000E+001 
       -1.150000000000E+001  -1.160000000000E+001  -1.170000000000E+001  -1.180000000000E+001  -1.190000000000E+001  -1.200000000000E+001  -1.210000000000E+001  -1.220000000000E+001  -1.230000000000E+001  -1.240000000000E+001 
       -1.250000000000E+001  -1.260000000000E+001  -1.270000000000E+001  -1.280000000000E+001  -1.290000000000E+001  -1.300000000000E+001  -1.310000000000E+001  -1.320000000000E+001  -1.330000000000E+001  -1.340000000000E+001 
       -1.350000000000E+001  -1.360000000000E+001  -1.370000000000E+001  -1.380000000000E+001  -1.390000000000E+001  -1.400000000000E+001  -1.410000000000E+001  -1.420000000000E+001  -1.430000000000E+001  -1.440000000000E+001 
       -4.400000000000E+000  -4.500000000000E+000  -4.600000000000E+000  -4.700000000000E+000  -4.800000000000E+000  -4.900000000000E+000  -5.000000000000E+000  -5.100000000000E+000  -5.200000000000E+000  -5.300000000000E+000 
       -5.400000000000E+000  -5.500000000000E+000  -5.600000000000E+000  -5.700000000000E+000  -5.800000000000E+000  -5.900000000000E+000  -6.000000000000E+000  -6.100000000000E+000  -6.200000000000E+000  -6.300000000000E+000 
       -6.400000000000E+000  -6.500000000000E+000  -6.600000000000E+000  -6.700000000000E+000  -6.800000000000E+000  -6.900000000000E+000  -7.000000000000E+000  -7.100000000000E+000  -7.200000000000E+000  -7.300000000000E+000 
       -7.400000000000E+000  -7.500000000000E+000  -7.600000000000E+000  -7.700000000000E+000  -7.800000000000E+000  -7.900000000000E+000  -8.000000000000E+000  -8.100000000000E+000  -8.200000000000E+000  -8.300000000000E+000 
       -8.400000000000E+000  -8.500000000000E+000  -8.600000000000E+000  -8.700000000000E+000  -8.800000000000E+000  -8.900000000000E+000  -9.000000000000E+000  -9.100000000000E+000  -9.200000000000E+000  -9.300000000000E+000 
       -9.400000000000E+000  -9.500000000000E+000  -9.600000000000E+000  -9.700000000000E+000  -9.800000000000E+000  -9.900000000000E+000  -1.000000000000E+001  -1.010000000000E+001  -1.020000000000E+001  -1.030000000000E+001 
       -1.040000000000E+001  -1.050000000000E+001  -1.060000000000E+001  -1.070000000000E+001  -1.080000000000E+001  -1.090000000000E+001  -1.100000000000E+001  -1.110000000000E+001  -1.120000000000E+001  -1.130000000000E+001 
       -1.140000000000E+001  -1.150000000000E+001  -1.160000000000E+001  -1.170000000000E+001  -1.180000000000E+001  -1.190000000000E+001  -1.200000000000E+001  -1.210000000000E+001  -1.220000000000E+001  -1.230000000000E+001 
       -1.240000000000E+001  -1.250000000000E+001  -1.260000000000E+001  -1.270000000000E+001  -1.280000000000E+001  -1.290000000000E+001  -1.300000000000E+001  -1.310000000000E+001  -1.320000000000E+001  -1.330000000000E+001 
       -1.340000000000E+001  -1.350000000000E+001  -1.360000000000E+001  -1.370000000000E+001  -1.380000000000E+001  -1.390000000000E+001  -1.400000000000E+001  -1.410000000000E+001  -1.420000000000E+001  -1.430000000000E+001 
       -4.300000000000E+000  -4.400000000000E+000  -4.500000000000E+000  -4.600000000000E+000  -4.700000000000E+000  -4.800000000000E+000  -4.900000000000E+000  -5.000000000000E+000  -5.100000000000E+000  -5.200000000000E+000 
       -5.300000000000E+000  -5.400000000000E+000  -5.500000000000E+000  -5.600000000000E+000  -5.700000000000E+000  -5.800000000000E+000  -5.900000000000E+000  -6.000000000000E+000  -6.100000000000E+000  -6.200000000000E+000 
       -6.300000000000E+000  -6.400000000000E+000  -6.500000000000E+000  -6.600000000000E+000  -6.700000000000E+000  -6.800000000000E+000  -6.900000000000E+000  -7.000000000000E+000  -7.100000000000E+000  -7.200000000000E+000 
       -7.300000000000E+000  -7.400000000000E+000  -7.500000000000E+000  -7.600000000000E+000  -7.700000000000E+000  -7.800000000000E+000  -7.900000000000E+000  -8.000000000000E+000  -8.100000000000E+000  -8.200000000000E+000 
       -8.300000000000E+000  -8.400000000000E+000  -8.500000000000E+000  -8.600000000000E+000  -8.700000000000E+000  -8.800000000000E+000  -8.900000000000E+000  -9.000000000000E+000  -9.100000000000E+000  -9.200000000000E+000 
       -9.300000000000E+000  -9.400000000000E+000  -9.500000000000E+000  -9.600000000000E+000  -9.700000000000E+000  -9.800000000000E+000  -9.900000000000E+000  -1.000000000000E+001  -1.010000000000E+001  -1.020000000000E+001 
       -1.030000000000E+001  -1.040000000000E+001  -1.050000000000E+001  -1.060000000000E+001  -1.070000000000E+001  -1.080000000000E+001  -1.090000000000E+001  -1.100000000000E+001  -1.110000000000E+001  -1.120000000000E+001 
       -1.130000000000E+001  -1.140000000000E+001  -1.150000000000E+001  -1.160000000000E+001  -1.170000000000E+001  -1.180000000000E+001  -1.190000000000E+001  -1.200000000000E+001  -1.210000000000E+001  -1.220000000000E+001 
       -1.230000000000E+001  -1.240000000000E+001  -1.250000000000E+001  -1.260000000000E+001  -1.270000000000E+001  -1.280000000000E+001  -1.290000000000E+001  -1.300000000000E+001  -1.310000000000E+001  -1.320000000000E+001 
       -1.330000000000E+001  -1.340000000000E+001  -1.350000000000E+001  -1.360000000000E+001  -1.370000000000E+001  -1.380000000000E+001  -1.390000000000E+001  -1.400000000000E+001  -1.410000000000E+001  -1.420000000000E+001 
       -4.200000000000E+000  -4.300000000000E+000  -4.400000000000E+000  -4.500000000000E+000  -4.600000000000E+000  -4.700000000000E+000  -4.800000000000E+000  -4.900000000000E+000  -5.000000000000E+000  -5.100000000000E+000 
       -5.200000000000E+000  -5.300000000000E+000  -5.400000000000E+000  -5.500000000000E+000  -5.600000000000E+000  -5.700000000000E+000  -5.800000000000E+000  -5.900000000000E+000  -6.000000000000E+000  -6.100000000000E+000 
       -6.200000000000E+000  -6.300000000000E+000  -6.400000000000E+000  -6.500000000000E+000  -6.600000000000E+000  -6.700000000000E+000  -6.800000000000E+000  -6.900000000000E+000  -7.000000000000E+000  -7.100000000000E+000 
       -7.200000000000E+000  -7.300000000000E+000  -7.400000000000E+000  -7.500000000000E+000  -7.600000000000E+000  -7.700000000000E+000  -7.800000000000E+000  -7.900000000000E+000  -8.000000000000E+000  -8.100000000000E+000 
       -8.200000000000E+000  -8.300000000000E+000  -8.400000000000E+000  -8.500000000000E+000  -8.600000000000E+000  -8.700000000000E+000  -8.800000000000E+000  -8.900000000000E+000  -9.000000000000E+000  -9.100000000000E+000 
       -9.200000000000E+000  -9.300000000000E+000  -9.400000000000E+000  -9.500000000000E+000  -9.600000000000E+000  -9.700000000000E+000  -9.800000000000E+000  -9.900000000000E+000  -1.000000000000E+001  -1.010000000000E+001 
       -1.020000000000E+001  -1.030000000000E+001  -1.040000000000E+001  -1.050000000000E+001  -1.060000000000E+001  -1.070000000000E+001  -1.080000000000E+001  -1.090000000000E+001  -1.100000000000E+001  -1.110000000000E+001 
       -1.120000000000E+001  -1.130000000000E+001  -1.140000000000E+001  -1.150000000000E+001  -1.160000000000E+001  -1.170000000000E+001  -1.180000000000E+001  -1.190000000000E+001  -1.200000000000E+001  -1.210000000000E+001 
       -1.220000000000E+001  -1.230000000000E+001  -1.240000000000E+001  -1.250000000000E+001  -1.260000000000E+001  -1.270000000000E+001  -1.280000000000E+001  -1.290000000000E+001  -1.300000000000E+001  -1.310000000000E+001 
       -1.320000000000E+001  -1.330000000000E+001  -1.340000000000E+001  -1.350000000000E+001  -1.360000000000E+001  -1.370000000000E+001  -1.380000000000E+001  -1.390000000000E+001  -1.400000000000E+001  -1.410000000000E+001 
       -4.100000000000E+000  -4.200000000000E+000  -4.300000000000E+000  -4.400000000000E+000  -4.500000000000E+000  -4.600000000000E+000  -4.700000000000E+000  -4.800000000000E+000  -4.900000000000E+000  -5.000000000000E+000 
       -5.100000000000E+000  -5.200000000000E+000  -5.300000000000E+000  -5.400000000000E+000  -5.500000000000E+000  -5.600000000000E+000  -5.700000000000E+000  -5.800000000000E+000  -5.900000000000E+000  -6.000000000000E+000 
       -6.100000000000E+000  -6.200000000000E+000  -6.300000000000E+000  -6.400000000000E+000  -6.500000000000E+000  -6.600000000000E+000  -6.700000000000E+000  -6.800000000000E+000  -6.900000000000E+000  -7.000000000000E+000 
       -7.100000000000E+000  -7.200000000000E+000  -7.300000000000E+000  -7.400000000000E+000  -7.500000000000E+000  -7.600000000000E+000  -7.700000000000E+000  -7.800000000000E+000  -7.900000000000E+000  -8.000000000000E+000 
       -8.100000000000E+000  -8.200000000000E+000  -8.300000000000E+000  -8.400000000000E+000  -8.500000000000E+000  -8.600000000000E+000  -8.700000000000E+000  -8.800000000000E+000  -8.900000000000E+000  -9.000000000000E+000 
       -9.100000000000E+000  -9.200000000000E+000  -9.300000000000E+000  -9.400000000000E+000  -9.500000000000E+000  -9.600000000000E+000  -9.700000000000E+000  -9.800000000000E+000  -9.900000000000E+000  -1.000000000000E+001 
       -1.010000000000E+001  -1.020000000000E+001  -1.030000000000E+001  -1.040000000000E+001  -1.050000000000E+001  -1.060000000000E+001  -1.070000000000E+001  -1.080000000000E+001  -1.090000000000E+001  -1.100000000000E+001 
       -1.110000000000E+001  -1.120000000000E+001  -1.130000000000E+001  -1.140000000000E+001  -1.150000000000E+001  -1.160000000000E+001  -1.170000000000E+001  -1.180000000000E+001  -1.190000000000E+001  -1.200000000000E+001 
       -1.210000000000E+001  -1.220000000000E+001  -1.230000000000E+001  -1.240000000000E+001  -1.250000000000E+001  -1.260000000000E+001  -1.270000000000E+001  -1.280000000000E+001  -1.290000000000E+001  -1.300000000000E+001 
       -1.310000000000E+001  -1.320000000000E+001  -1.330000000000E+001  -1.340000000000E+001  -1.350000000000E+001  -1.360000000000E+001  -1.370000000000E+001  -1.380000000000E+001  -1.390000000000E+001  -1.400000000000E+001 
       -4.000000000000E+000  -4.100000000000E+000  -4.200000000000E+000  -4.300000000000E+000  -4.400000000000E+000  -4.500000000000E+000  -4.600000000000E+000  -4.700000000000E+000  -4.800000000000E+000  -4.900000000000E+000 
       -5.000000000000E+000  -5.100000000000E+000  -5.200000000000E+000  -5.300000000000E+000  -5.400000000000E+000  -5.500000000000E+000  -5.600000000000E+000  -5.700000000000E+000  -5.800000000000E+000  -5.900000000000E+000 
       -6.000000000000E+000  -6.100000000000E+000  -6.200000000000E+000  -6.300000000000E+000  -6.400000000000E+000  -6.500000000000E+000  -6.600000000000E+000  -6.700000000000E+000  -6.800000000000E+000  -6.900000000000E+000 
       -7.000000000000E+000  -7.100000000000E+000  -7.200000000000E+000  -7.300000000000E+000  -7.400000000000E+000  -7.500000000000E+000  -7.600000000000E+000  -7.700000000000E+000  -7.800000000000E+000  -7.900000000000E+000 
       -8.000000000000E+000  -8.100000000000E+000  -8.200000000000E+000  -8.300000000000E+000  -8.400000000000E+000  -8.500000000000E+000  -8.600000000000E+000  -8.700000000000E+000  -8.800000000000E+000  -8.900000000000E+000 
       -9.000000000000E+000  -9.100000000000E+000  -9.200000000000E+000  -9.300000000000E+000  -9.400000000000E+000  -9.500000000000E+000  -9.600000000000E+000  -9.700000000000E+000  -9.800000000000E+000  -9.900000000000E+000 
       -1.000000000000E+001  -1.010000000000E+001  -1.020000000000E+001  -1.030000000000E+001  -1.040000000000E+001  -1.050000000000E+001  -1.060000000000E+001  -1.070000000000E+001  -1.080000000000E+001  -1.090000000000E+001 
       -1.100000000000E+001  -1.110000000000E+001  -1.120000000000E+001  -1.130000000000E+001  -1.140000000000E+001  -1.150000000000E+001  -1.160000000000E+001  -1.170000000000E+001  -1.180000000000E+001  -1.190000000000E+001 
       -1.200000000000E+001  -1.210000000000E+001  -1.220000000000E+001  -1.230000000000E+001  -1.240000000000E+001  -1.250000000000E+001  -1.260000000000E+001  -1.270000000000E+001  -1.280000000000E+001  -1.290000000000E+001 
       -1.300000000000E+001  -1.310000000000E+001  -1.320000000000E+001  -1.330000000000E+001  -1.340000000000E+001  -1.350000000000E+001  -1.360000000000E+001  -1.370000000000E+001  -1.380000000000E+001  -1.390000000000E+001 
       -3.900000000000E+000  -4.000000000000E+000  -4.100000000000E+000  -4.200000000000E+000  -4.300000000000E+000  -4.400000000000E+000  -4.500000000000E+000  -4.600000000000E+000  -4.700000000000E+000  -4.800000000000E+000 
       -4.900000000000E+000  -5.000000000000E+000  -5.100000000000E+000  -5.200000000000E+000  -5.300000000000E+000  -5.400000000000E+000  -5.500000000000E+000  -5.600000000000E+000  -5.700000000000E+000  -5.800000000000E+000 
       -5.900000000000E+000  -6.000000000000E+000  -6.100000000000E+000  -6.200000000000E+000  -6.300000000000E+000  -6.400000000000E+000  -6.500000000000E+000  -6.600000000000E+000  -6.700000000000E+000  -6.800000000000E+000 
       -6.900000000000E+000  -7.000000000000E+000  -7.100000000000E+000  -7.200000000000E+000  -7.300000000000E+000  -7.400000000000E+000  -7.500000000000E+000  -7.600000000000E+000  -7.700000000000E+000  -7.800000000000E+000 
       -7.900000000000E+000  -8.000000000000E+000  -8.100000000000E+000  -8.200000000000E+000  -8.300000000000E+000  -8.400000000000E+000  -8.500000000000E+000  -8.600000000000E+000  -8.700000000000E+000  -8.800000000000E+000 
       -8.900000000000E+000  -9.000000000000E+000  -9.100000000000E+000  -9.200000000000E+000  -9.300000000000E+000  -9.400000000000E+000  -9.500000000000E+000  -9.600000000000E+000  -9.700000000000E+000  -9.800000000000E+000 
       -9.900000000000E+000  -1.000000000000E+001  -1.010000000000E+001  -1.020000000000E+001  -1.030000000000E+001  -1.040000000000E+001  -1.050000000000E+001  -1.060000000000E+001  -1.070000000000E+001  -1.080000000000E+001 
       -1.090000000000E+001  -1.100000000000E+001  -1.110000000000E+001  -1.120000000000E+001  -1.130000000000E+001  -1.140000000000E+001  -1.150000000000E+001  -1.160000000000E+001  -1.170000000000E+001  -1.180000000000E+001 
       -1.190000000000E+001  -1.200000000000E+001  -1.210000000000E+001  -1.220000000000E+001  -1.230000000000E+001  -1.240000000000E+001  -1.250000000000E+001  -1.260000000000E+001  -1.270000000000E+001  -1.280000000000E+001 
       -1.290000000000E+001  -1.300000000000E+001  -1.310000000000E+001  -1.320000000000E+001  -1.330000000000E+001  -1.340000000000E+001  -1.350000000000E+001  -1.360000000000E+001  -1.370000000000E+001  -1.380000000000E+001 
       -3.800000000000E+000  -3.900000000000E+000  -4.000000000000E+000  -4.100000000000E+000  -4.200000000000E+000  -4.300000000000E+000  -4.400000000000E+000  -4.500000000000E+000  -4.600000000000E+000  -4.700000000000E+000 
       -4.800000000000E+000  -4.900000000000E+000  -5.000000000000E+000  -5.100000000000E+000  -5.200000000000E+000  -5.300000000000E+000  -5.400000000000E+000  -5.500000000000E+000  -5.600000000000E+000  -5.700000000000E+000 
       -5.800000000000E+000  -5.900000000000E+000  -6.000000000000E+000  -6.100000000000E+000  -6.200000000000E+000  -6.300000000000E+000  -6.400000000000E+000  -6.500000000000E+000  -6.600000000000E+000  -6.700000000000E+000 
       -6.800000000000E+000  -6.900000000000E+000  -7.000000000000E+000  -7.100000000000E+000  -7.200000000000E+000  -7.300000000000E+000  -7.400000000000E+000  -7.500000000000E+000  -7.600000000000E+000  -7.700000000000E+000 
       -7.800000000000E+000  -7.900000000000E+000  -8.000000000000E+000  -8.100000000000E+000  -8.200000000000E+000  -8.300000000000E+000  -8.400000000000E+000  -8.500000000000E+000  -8.600000000000E+000  -8.700000000000E+000 
       -8.800000000000E+000  -8.900000000000E+000  -9.000000000000E+000  -9.100000000000E+000  -9.200000000000E+000  -9.300000000000E+000  -9.400000000000E+000  -9.500000000000E+000  -9.600000000000E+000  -9.700000000000E+000 
       -9.800000000000E+000  -9.900000000000E+000  -1.000000000000E+001  -1.010000000000E+001  -1.020000000000E+001  -1.030000000000E+001  -1.040000000000E+001  -1.050000000000E+001  -1.060000000000E+001  -1.070000000000E+001 
       -1.080000000000E+001  -1.090000000000E+001  -1.100000000000E+001  -1.110000000000E+001  -1.120000000000E+001  -1.130000000000E+001  -1.140000000000E+001  -1.150000000000E+001  -1.160000000000E+001  -1.170000000000E+001 
       -1.180000000000E+001  -1.190000000000E+001  -1.200000000000E+001  -1.210000000000E+001  -1.220000000000E+001  -1.230000000000E+001  -1.240000000000E+001  -1.250000000000E+001  -1.260000000000E+001  -1.270000000000E+001 
       -1.280000000000E+001  -1.290000000000E+001  -1.300000000000E+001  -1.310000000000E+001  -1.320000000000E+001  -1.330000000000E+001  -1.340000000000E+001  -1.350000000000E+001  -1.360000000000E+001  -1.370000000000E+001 
       -3.700000000000E+000  -3.800000000000E+000  -3.900000000000E+000  -4.000000000000E+000  -4.100000000000E+000  -4.200000000000E+000  -4.300000000000E+000  -4.400000000000E+000  -4.500000000000E+000  -4.600000000000E+000 
       -4.700000000000E+000  -4.800000000000E+000  -4.900000000000E+000  -5.000000000000E+000  -5.100000000000E+000  -5.200000000000E+000  -5.300000000000E+000  -5.400000000000E+000  -5.500000000000E+000  -5.600000000000E+000 
       -5.700000000000E+000  -5.800000000000E+000  -5.900000000000E+000  -6.000000000000E+000  -6.100000000000E+000  -6.200000000000E+000  -6.300000000000E+000  -6.400000000000E+000  -6.500000000000E+000  -6.600000000000E+000 
       -6.700000000000E+000  -6.800000000000E+000  -6.900000000000E+000  -7.000000000000E+000  -7.100000000000E+000  -7.200000000000E+000  -7.300000000000E+000  -7.400000000000E+000  -7.500000000000E+000  -7.600000000000E+000 
       -7.700000000000E+000  -7.800000000000E+000  -7.900000000000E+000  -8.000000000000E+000  -8.100000000000E+000  -8.200000000000E+000  -8.300000000000E+000  -8.400000000000E+000  -8.500000000000E+000  -8.600000000000E+000 
       -8.700000000000E+000  -8.800000000000E+000  -8.900000000000E+000  -9.000000000000E+000  -9.100000000000E+000  -9.200000000000E+000  -9.300000000000E+000  -9.400000000000E+000  -9.500000000000E+000  -9.600000000000E+000 
       -9.700000000000E+000  -9.800000000000E+000  -9.900000000000E+000  -1.000000000000E+001  -1.010000000000E+001  -1.020000000000E+001  -1.030000000000E+001  -1.040000000000E+001  -1.050000000000E+001  -1.060000000000E+001 
       -1.070000000000E+001  -1.080000000000E+001  -1.090000000000E+001  -1.100000000000E+001  -1.110000000000E+001  -1.120000000000E+001  -1.130000000000E+001  -1.140000000000E+001  -1.150000000000E+001  -1.160000000000E+001 
       -1.170000000000E+001  -1.180000000000E+001  -1.190000000000E+001  -1.200000000000E+001  -1.210000000000E+001  -1.220000000000E+001  -1.230000000000E+001  -1.240000000000E+001  -1.250000000000E+001  -1.260000000000E+001 
       -1.270000000000E+001  -1.280000000000E+001  -1.290000000000E+001  -1.300000000000E+001  -1.310000000000E+001  -1.320000000000E+001  -1.330000000000E+001  -1.340000000000E+001  -1.350000000000E+001  -1.360000000000E+001 