# Discretization File created on 2/19/2019 by ModelMuse version 3.10.0.42.
# MT3DMS benchmark test problem #4
# 2D transport in a diagonal uniform flow field
# Upper left corner: (0, 0)
# Lower left corner: (0, -1000)
# Upper right corner: (1000, 0)
# Lower right corner: (1000, -1000)
# Grid angle (in degrees counterclockwise): 0
BEGIN OPTIONS
  XORIGIN  0.000000000000E+000 
  YORIGIN -1.000000000000E+003 
  ANGROT  0.000000000000E+000 
END OPTIONS

BEGIN DIMENSIONS
  NLAY      1
  NROW    100
  NCOL    100
END DIMENSIONS


BEGIN GRIDDATA
  DELR IPRN    12
    CONSTANT   1.000000000000E+001  # DELR

  DELC IPRN    12
    CONSTANT   1.000000000000E+001  # DELC

  TOP LAYERED IPRN    12
    CONSTANT   1.000000000000E+000  # TOP

  BOTM LAYERED IPRN    12
    CONSTANT   0.000000000000E+000  # BOTM, Layer 1

  IDOMAIN LAYERED IPRN     5
    CONSTANT      1 # IDOMAIN 1
END GRIDDATA

