BEGIN TIMING
  TDIS6   ImportedP4.tdis
END TIMING

BEGIN MODELS
  GWF6    ImportedP4.nam   MODFLOW
END MODELS

BEGIN EXCHANGES
END EXCHANGES

BEGIN SOLUTIONGROUP     1
  MXITER     1
  IMS6    ImportedP4.ims   MODFLOW
END SOLUTIONGROUP

