# MODFLOW2000 Basic Package
#MODFLOW Data Set Created by Groundwater Vistas
#   
SHOWPROGRESS 
         1         1(25I3)                      -1     IBOUND Layer   1
 -1  1  1  1  1  1  1  1  1  1  1  1  1  1  1  1  1  1  1  1  1  1  1  1  1
  1  1  1  1  1  1  1  1  1  1  1  1  1  1  1  1  1  1  1  1  1  1  1  1  1
  1  1  1  1  1  1  1  1  1  1  1  1  1  1  1  1  1  1  1  1  1  1  1  1  1
  1  1  1  1  1  1  1  1  1  1  1  1  1  1  1  1  1  1  1  1  1  1  1  1  1
  1  1  1  1  1  1  1  1  1  1  1  1  1  1  1  1  1  1  1  1  1  1  1  1  1
  1  1  1  1  1  1  1  1  1  1  1  1  1  1  1  1  1  1  1  1  1  1  1  1 -1
         1         1(25I3)                      -1     IBOUND Layer   2
 -1  1  1  1  1  1  1  1  1  1  1  1  1  1  1  1  1  1  1  1  1  1  1  1  1
  1  1  1  1  1  1  1  1  1  1  1  1  1  1  1  1  1  1  1  1  1  1  1  1  1
  1  1  1  1  1  1  1  1  1  1  1  1  1  1  1  1  1  1  1  1  1  1  1  1  1
  1  1  1  1  1  1  1  1  1  1  1  1  1  1  1  1  1  1  1  1  1  1  1  1  1
  1  1  1  1  1  1  1  1  1  1  1  1  1  1  1  1  1  1  1  1  1  1  1  1  1
  1  1  1  1  1  1  1  1  1  1  1  1  1  1  1  1  1  1  1  1  1  1  1  1 -1
         1         1(25I3)                      -1     IBOUND Layer   3
 -1  1  1  1  1  1  1  1  1  1  1  1  1  1  1  1  1  1  1  1  1  1  1  1  1
  1  1  1  1  1  1  1  1  1  1  1  1  1  1  1  1  1  1  1  1  1  1  1  1  1
  1  1  1  1  1  1  1  1  1  1  1  1  1  1  1  1  1  1  1  1  1  1  1  1  1
  1  1  1  1  1  1  1  1  1  1  1  1  1  1  1  1  1  1  1  1  1  1  1  1  1
  1  1  1  1  1  1  1  1  1  1  1  1  1  1  1  1  1  1  1  1  1  1  1  1  1
  1  1  1  1  1  1  1  1  1  1  1  1  1  1  1  1  1  1  1  1  1  1  1  1 -1
         1         1(25I3)                      -1     IBOUND Layer   4
 -1  1  1  1  1  1  1  1  1  1  1  1  1  1  1  1  1  1  1  1  1  1  1  1  1
  1  1  1  1  1  1  1  1  1  1  1  1  1  1  1  1  1  1  1  1  1  1  1  1  1
  1  1  1  1  1  1  1  1  1  1  1  1  1  1  1  1  1  1  1  1  1  1  1  1  1
  1  1  1  1  1  1  1  1  1  1  1  1  1  1  1  1  1  1  1  1  1  1  1  1  1
  1  1  1  1  1  1  1  1  1  1  1  1  1  1  1  1  1  1  1  1  1  1  1  1  1
  1  1  1  1  1  1  1  1  1  1  1  1  1  1  1  1  1  1  1  1  1  1  1  1 -1
         1         1(25I3)                      -1     IBOUND Layer   5
 -1  1  1  1  1  1  1  1  1  1  1  1  1  1  1  1  1  1  1  1  1  1  1  1  1
  1  1  1  1  1  1  1  1  1  1  1  1  1  1  1  1  1  1  1  1  1  1  1  1  1
  1  1  1  1  1  1  1  1  1  1  1  1  1  1  1  1  1  1  1  1  1  1  1  1  1
  1  1  1  1  1  1  1  1  1  1  1  1  1  1  1  1  1  1  1  1  1  1  1  1  1
  1  1  1  1  1  1  1  1  1  1  1  1  1  1  1  1  1  1  1  1  1  1  1  1  1
  1  1  1  1  1  1  1  1  1  1  1  1  1  1  1  1  1  1  1  1  1  1  1  1 -1
         1         1(25I3)                      -1     IBOUND Layer   6
 -1  1  1  1  1  1  1  1  1  1  1  1  1  1  1  1  1  1  1  1  1  1  1  1  1
  1  1  1  1  1  1  1  1  1  1  1  1  1  1  1  1  1  1  1  1  1  1  1  1  1
  1  1  1  1  1  1  1  1  1  1  1  1  1  1  1  1  1  1  1  1  1  1  1  1  1
  1  1  1  1  1  1  1  1  1  1  1  1  1  1  1  1  1  1  1  1  1  1  1  1  1
  1  1  1  1  1  1  1  1  1  1  1  1  1  1  1  1  1  1  1  1  1  1  1  1  1
  1  1  1  1  1  1  1  1  1  1  1  1  1  1  1  1  1  1  1  1  1  1  1  1 -1
         1         1(25I3)                      -1     IBOUND Layer   7
 -1  1  1  1  1  1  1  1  1  1  1  1  1  1  1  1  1  1  1  1  1  1  1  1  1
  1  1  1  1  1  1  1  1  1  1  1  1  1  1  1  1  1  1  1  1  1  1  1  1  1
  1  1  1  1  1  1  1  1  1  1  1  1  1  1  1  1  1  1  1  1  1  1  1  1  1
  1  1  1  1  1  1  1  1  1  1  1  1  1  1  1  1  1  1  1  1  1  1  1  1  1
  1  1  1  1  1  1  1  1  1  1  1  1  1  1  1  1  1  1  1  1  1  1  1  1  1
  1  1  1  1  1  1  1  1  1  1  1  1  1  1  1  1  1  1  1  1  1  1  1  1 -1
         1         1(25I3)                      -1     IBOUND Layer   8
 -1  1  1  1  1  1  1  1  1  1  1  1  1  1  1  1  1  1  1  1  1  1  1  1  1
  1  1  1  1  1  1  1  1  1  1  1  1  1  1  1  1  1  1  1  1  1  1  1  1  1
  1  1  1  1  1  1  1  1  1  1  1  1  1  1  1  1  1  1  1  1  1  1  1  1  1
  1  1  1  1  1  1  1  1  1  1  1  1  1  1  1  1  1  1  1  1  1  1  1  1  1
  1  1  1  1  1  1  1  1  1  1  1  1  1  1  1  1  1  1  1  1  1  1  1  1  1
  1  1  1  1  1  1  1  1  1  1  1  1  1  1  1  1  1  1  1  1  1  1  1  1 -1
         1         1(25I3)                      -1     IBOUND Layer   9
 -1  1  1  1  1  1  1  1  1  1  1  1  1  1  1  1  1  1  1  1  1  1  1  1  1
  1  1  1  1  1  1  1  1  1  1  1  1  1  1  1  1  1  1  1  1  1  1  1  1  1
  1  1  1  1  1  1  1  1  1  1  1  1  1  1  1  1  1  1  1  1  1  1  1  1  1
  1  1  1  1  1  1  1  1  1  1  1  1  1  1  1  1  1  1  1  1  1  1  1  1  1
  1  1  1  1  1  1  1  1  1  1  1  1  1  1  1  1  1  1  1  1  1  1  1  1  1
  1  1  1  1  1  1  1  1  1  1  1  1  1  1  1  1  1  1  1  1  1  1  1  1 -1
         1         1(25I3)                      -1     IBOUND Layer  10
 -1  1  1  1  1  1  1  1  1  1  1  1  1  1  1  1  1  1  1  1  1  1  1  1  1
  1  1  1  1  1  1  1  1  1  1  1  1  1  1  1  1  1  1  1  1  1  1  1  1  1
  1  1  1  1  1  1  1  1  1  1  1  1  1  1  1  1  1  1  1  1  1  1  1  1  1
  1  1  1  1  1  1  1  1  1  1  1  1  1  1  1  1  1  1  1  1  1  1  1  1  1
  1  1  1  1  1  1  1  1  1  1  1  1  1  1  1  1  1  1  1  1  1  1  1  1  1
  1  1  1  1  1  1  1  1  1  1  1  1  1  1  1  1  1  1  1  1  1  1  1  1 -1
         1         1(25I3)                      -1     IBOUND Layer  11
 -1  1  1  1  1  1  1  1  1  1  1  1  1  1  1  1  1  1  1  1  1  1  1  1  1
  1  1  1  1  1  1  1  1  1  1  1  1  1  1  1  1  1  1  1  1  1  1  1  1  1
  1  1  1  1  1  1  1  1  1  1  1  1  1  1  1  1  1  1  1  1  1  1  1  1  1
  1  1  1  1  1  1  1  1  1  1  1  1  1  1  1  1  1  1  1  1  1  1  1  1  1
  1  1  1  1  1  1  1  1  1  1  1  1  1  1  1  1  1  1  1  1  1  1  1  1  1
  1  1  1  1  1  1  1  1  1  1  1  1  1  1  1  1  1  1  1  1  1  1  1  1 -1
         1         1(25I3)                      -1     IBOUND Layer  12
 -1  1  1  1  1  1  1  1  1  1  1  1  1  1  1  1  1  1  1  1  1  1  1  1  1
  1  1  1  1  1  1  1  1  1  1  1  1  1  1  1  1  1  1  1  1  1  1  1  1  1
  1  1  1  1  1  1  1  1  1  1  1  1  1  1  1  1  1  1  1  1  1  1  1  1  1
  1  1  1  1  1  1  1  1  1  1  1  1  1  1  1  1  1  1  1  1  1  1  1  1  1
  1  1  1  1  1  1  1  1  1  1  1  1  1  1  1  1  1  1  1  1  1  1  1  1  1
  1  1  1  1  1  1  1  1  1  1  1  1  1  1  1  1  1  1  1  1  1  1  1  1 -1
         1         1(25I3)                      -1     IBOUND Layer  13
 -1  1  1  1  1  1  1  1  1  1  1  1  1  1  1  1  1  1  1  1  1  1  1  1  1
  1  1  1  1  1  1  1  1  1  1  1  1  1  1  1  1  1  1  1  1  1  1  1  1  1
  1  1  1  1  1  1  1  1  1  1  1  1  1  1  1  1  1  1  1  1  1  1  1  1  1
  1  1  1  1  1  1  1  1  1  1  1  1  1  1  1  1  1  1  1  1  1  1  1  1  1
  1  1  1  1  1  1  1  1  1  1  1  1  1  1  1  1  1  1  1  1  1  1  1  1  1
  1  1  1  1  1  1  1  1  1  1  1  1  1  1  1  1  1  1  1  1  1  1  1  1 -1
         1         1(25I3)                      -1     IBOUND Layer  14
 -1  1  1  1  1  1  1  1  1  1  1  1  1  1  1  1  1  1  1  1  1  1  1  1  1
  1  1  1  1  1  1  1  1  1  1  1  1  1  1  1  1  1  1  1  1  1  1  1  1  1
  1  1  1  1  1  1  1  1  1  1  1  1  1  1  1  1  1  1  1  1  1  1  1  1  1
  1  1  1  1  1  1  1  1  1  1  1  1  1  1  1  1  1  1  1  1  1  1  1  1  1
  1  1  1  1  1  1  1  1  1  1  1  1  1  1  1  1  1  1  1  1  1  1  1  1  1
  1  1  1  1  1  1  1  1  1  1  1  1  1  1  1  1  1  1  1  1  1  1  1  1 -1
         1         1(25I3)                      -1     IBOUND Layer  15
 -1  1  1  1  1  1  1  1  1  1  1  1  1  1  1  1  1  1  1  1  1  1  1  1  1
  1  1  1  1  1  1  1  1  1  1  1  1  1  1  1  1  1  1  1  1  1  1  1  1  1
  1  1  1  1  1  1  1  1  1  1  1  1  1  1  1  1  1  1  1  1  1  1  1  1  1
  1  1  1  1  1  1  1  1  1  1  1  1  1  1  1  1  1  1  1  1  1  1  1  1  1
  1  1  1  1  1  1  1  1  1  1  1  1  1  1  1  1  1  1  1  1  1  1  1  1  1
  1  1  1  1  1  1  1  1  1  1  1  1  1  1  1  1  1  1  1  1  1  1  1  1 -1
         1         1(25I3)                      -1     IBOUND Layer  16
 -1  1  1  1  1  1  1  1  1  1  1  1  1  1  1  1  1  1  1  1  1  1  1  1  1
  1  1  1  1  1  1  1  1  1  1  1  1  1  1  1  1  1  1  1  1  1  1  1  1  1
  1  1  1  1  1  1  1  1  1  1  1  1  1  1  1  1  1  1  1  1  1  1  1  1  1
  1  1  1  1  1  1  1  1  1  1  1  1  1  1  1  1  1  1  1  1  1  1  1  1  1
  1  1  1  1  1  1  1  1  1  1  1  1  1  1  1  1  1  1  1  1  1  1  1  1  1
  1  1  1  1  1  1  1  1  1  1  1  1  1  1  1  1  1  1  1  1  1  1  1  1 -1
9.9900e+02
         1   1.00000(10e12.4)                   -1     STARTING HEADS Layer   1
  3.0000e+02  3.0000e+02  3.0000e+02  3.0000e+02  3.0000e+02  3.0000e+02  3.0000e+02  3.0000e+02  3.0000e+02  3.0000e+02
  3.0000e+02  3.0000e+02  3.0000e+02  3.0000e+02  3.0000e+02  3.0000e+02  3.0000e+02  3.0000e+02  3.0000e+02  3.0000e+02
  3.0000e+02  3.0000e+02  3.0000e+02  3.0000e+02  3.0000e+02  3.0000e+02  3.0000e+02  3.0000e+02  3.0000e+02  3.0000e+02
  3.0000e+02  3.0000e+02  3.0000e+02  3.0000e+02  3.0000e+02  3.0000e+02  3.0000e+02  3.0000e+02  3.0000e+02  3.0000e+02
  3.0000e+02  3.0000e+02  3.0000e+02  3.0000e+02  3.0000e+02  3.0000e+02  3.0000e+02  3.0000e+02  3.0000e+02  3.0000e+02
  3.0000e+02  3.0000e+02  3.0000e+02  3.0000e+02  3.0000e+02  3.0000e+02  3.0000e+02  3.0000e+02  3.0000e+02  3.0000e+02
  3.0000e+02  3.0000e+02  3.0000e+02  3.0000e+02  3.0000e+02  3.0000e+02  3.0000e+02  3.0000e+02  3.0000e+02  3.0000e+02
  3.0000e+02  3.0000e+02  3.0000e+02  3.0000e+02  3.0000e+02  3.0000e+02  3.0000e+02  3.0000e+02  3.0000e+02  3.0000e+02
  3.0000e+02  3.0000e+02  3.0000e+02  3.0000e+02  3.0000e+02  3.0000e+02  3.0000e+02  3.0000e+02  3.0000e+02  3.0000e+02
  3.0000e+02  3.0000e+02  3.0000e+02  3.0000e+02  3.0000e+02  3.0000e+02  3.0000e+02  3.0000e+02  3.0000e+02  3.0000e+02
  3.0000e+02  3.0000e+02  3.0000e+02  3.0000e+02  3.0000e+02  3.0000e+02  3.0000e+02  3.0000e+02  3.0000e+02  3.0000e+02
  3.0000e+02  3.0000e+02  3.0000e+02  3.0000e+02  3.0000e+02  3.0000e+02  3.0000e+02  3.0000e+02  3.0000e+02  3.0000e+02
  3.0000e+02  3.0000e+02  3.0000e+02  3.0000e+02  3.0000e+02  3.0000e+02  3.0000e+02  3.0000e+02  3.0000e+02  3.0000e+02
  3.0000e+02  3.0000e+02  3.0000e+02  3.0000e+02  3.0000e+02  3.0000e+02  3.0000e+02  3.0000e+02  3.0000e+02  3.0000e+02
  3.0000e+02  3.0000e+02  3.0000e+02  3.0000e+02  3.0000e+02  3.0000e+02  3.0000e+02  3.0000e+02  3.0000e+02  2.8972e+02
         1   1.00000(10e12.4)                   -1     STARTING HEADS Layer   2
  3.0000e+02  3.0000e+02  3.0000e+02  3.0000e+02  3.0000e+02  3.0000e+02  3.0000e+02  3.0000e+02  3.0000e+02  3.0000e+02
  3.0000e+02  3.0000e+02  3.0000e+02  3.0000e+02  3.0000e+02  3.0000e+02  3.0000e+02  3.0000e+02  3.0000e+02  3.0000e+02
  3.0000e+02  3.0000e+02  3.0000e+02  3.0000e+02  3.0000e+02  3.0000e+02  3.0000e+02  3.0000e+02  3.0000e+02  3.0000e+02
  3.0000e+02  3.0000e+02  3.0000e+02  3.0000e+02  3.0000e+02  3.0000e+02  3.0000e+02  3.0000e+02  3.0000e+02  3.0000e+02
  3.0000e+02  3.0000e+02  3.0000e+02  3.0000e+02  3.0000e+02  3.0000e+02  3.0000e+02  3.0000e+02  3.0000e+02  3.0000e+02
  3.0000e+02  3.0000e+02  3.0000e+02  3.0000e+02  3.0000e+02  3.0000e+02  3.0000e+02  3.0000e+02  3.0000e+02  3.0000e+02
  3.0000e+02  3.0000e+02  3.0000e+02  3.0000e+02  3.0000e+02  3.0000e+02  3.0000e+02  3.0000e+02  3.0000e+02  3.0000e+02
  3.0000e+02  3.0000e+02  3.0000e+02  3.0000e+02  3.0000e+02  3.0000e+02  3.0000e+02  3.0000e+02  3.0000e+02  3.0000e+02
  3.0000e+02  3.0000e+02  3.0000e+02  3.0000e+02  3.0000e+02  3.0000e+02  3.0000e+02  3.0000e+02  3.0000e+02  3.0000e+02
  3.0000e+02  3.0000e+02  3.0000e+02  3.0000e+02  3.0000e+02  3.0000e+02  3.0000e+02  3.0000e+02  3.0000e+02  3.0000e+02
  3.0000e+02  3.0000e+02  3.0000e+02  3.0000e+02  3.0000e+02  3.0000e+02  3.0000e+02  3.0000e+02  3.0000e+02  3.0000e+02
  3.0000e+02  3.0000e+02  3.0000e+02  3.0000e+02  3.0000e+02  3.0000e+02  3.0000e+02  3.0000e+02  3.0000e+02  3.0000e+02
  3.0000e+02  3.0000e+02  3.0000e+02  3.0000e+02  3.0000e+02  3.0000e+02  3.0000e+02  3.0000e+02  3.0000e+02  3.0000e+02
  3.0000e+02  3.0000e+02  3.0000e+02  3.0000e+02  3.0000e+02  3.0000e+02  3.0000e+02  3.0000e+02  3.0000e+02  3.0000e+02
  3.0000e+02  3.0000e+02  3.0000e+02  3.0000e+02  3.0000e+02  3.0000e+02  3.0000e+02  3.0000e+02  3.0000e+02  2.8972e+02
         1   1.00000(10e12.4)                   -1     STARTING HEADS Layer   3
  3.0000e+02  3.0000e+02  3.0000e+02  3.0000e+02  3.0000e+02  3.0000e+02  3.0000e+02  3.0000e+02  3.0000e+02  3.0000e+02
  3.0000e+02  3.0000e+02  3.0000e+02  3.0000e+02  3.0000e+02  3.0000e+02  3.0000e+02  3.0000e+02  3.0000e+02  3.0000e+02
  3.0000e+02  3.0000e+02  3.0000e+02  3.0000e+02  3.0000e+02  3.0000e+02  3.0000e+02  3.0000e+02  3.0000e+02  3.0000e+02
  3.0000e+02  3.0000e+02  3.0000e+02  3.0000e+02  3.0000e+02  3.0000e+02  3.0000e+02  3.0000e+02  3.0000e+02  3.0000e+02
  3.0000e+02  3.0000e+02  3.0000e+02  3.0000e+02  3.0000e+02  3.0000e+02  3.0000e+02  3.0000e+02  3.0000e+02  3.0000e+02
  3.0000e+02  3.0000e+02  3.0000e+02  3.0000e+02  3.0000e+02  3.0000e+02  3.0000e+02  3.0000e+02  3.0000e+02  3.0000e+02
  3.0000e+02  3.0000e+02  3.0000e+02  3.0000e+02  3.0000e+02  3.0000e+02  3.0000e+02  3.0000e+02  3.0000e+02  3.0000e+02
  3.0000e+02  3.0000e+02  3.0000e+02  3.0000e+02  3.0000e+02  3.0000e+02  3.0000e+02  3.0000e+02  3.0000e+02  3.0000e+02
  3.0000e+02  3.0000e+02  3.0000e+02  3.0000e+02  3.0000e+02  3.0000e+02  3.0000e+02  3.0000e+02  3.0000e+02  3.0000e+02
  3.0000e+02  3.0000e+02  3.0000e+02  3.0000e+02  3.0000e+02  3.0000e+02  3.0000e+02  3.0000e+02  3.0000e+02  3.0000e+02
  3.0000e+02  3.0000e+02  3.0000e+02  3.0000e+02  3.0000e+02  3.0000e+02  3.0000e+02  3.0000e+02  3.0000e+02  3.0000e+02
  3.0000e+02  3.0000e+02  3.0000e+02  3.0000e+02  3.0000e+02  3.0000e+02  3.0000e+02  3.0000e+02  3.0000e+02  3.0000e+02
  3.0000e+02  3.0000e+02  3.0000e+02  3.0000e+02  3.0000e+02  3.0000e+02  3.0000e+02  3.0000e+02  3.0000e+02  3.0000e+02
  3.0000e+02  3.0000e+02  3.0000e+02  3.0000e+02  3.0000e+02  3.0000e+02  3.0000e+02  3.0000e+02  3.0000e+02  3.0000e+02
  3.0000e+02  3.0000e+02  3.0000e+02  3.0000e+02  3.0000e+02  3.0000e+02  3.0000e+02  3.0000e+02  3.0000e+02  2.8972e+02
         1   1.00000(10e12.4)                   -1     STARTING HEADS Layer   4
  3.0000e+02  3.0000e+02  3.0000e+02  3.0000e+02  3.0000e+02  3.0000e+02  3.0000e+02  3.0000e+02  3.0000e+02  3.0000e+02
  3.0000e+02  3.0000e+02  3.0000e+02  3.0000e+02  3.0000e+02  3.0000e+02  3.0000e+02  3.0000e+02  3.0000e+02  3.0000e+02
  3.0000e+02  3.0000e+02  3.0000e+02  3.0000e+02  3.0000e+02  3.0000e+02  3.0000e+02  3.0000e+02  3.0000e+02  3.0000e+02
  3.0000e+02  3.0000e+02  3.0000e+02  3.0000e+02  3.0000e+02  3.0000e+02  3.0000e+02  3.0000e+02  3.0000e+02  3.0000e+02
  3.0000e+02  3.0000e+02  3.0000e+02  3.0000e+02  3.0000e+02  3.0000e+02  3.0000e+02  3.0000e+02  3.0000e+02  3.0000e+02
  3.0000e+02  3.0000e+02  3.0000e+02  3.0000e+02  3.0000e+02  3.0000e+02  3.0000e+02  3.0000e+02  3.0000e+02  3.0000e+02
  3.0000e+02  3.0000e+02  3.0000e+02  3.0000e+02  3.0000e+02  3.0000e+02  3.0000e+02  3.0000e+02  3.0000e+02  3.0000e+02
  3.0000e+02  3.0000e+02  3.0000e+02  3.0000e+02  3.0000e+02  3.0000e+02  3.0000e+02  3.0000e+02  3.0000e+02  3.0000e+02
  3.0000e+02  3.0000e+02  3.0000e+02  3.0000e+02  3.0000e+02  3.0000e+02  3.0000e+02  3.0000e+02  3.0000e+02  3.0000e+02
  3.0000e+02  3.0000e+02  3.0000e+02  3.0000e+02  3.0000e+02  3.0000e+02  3.0000e+02  3.0000e+02  3.0000e+02  3.0000e+02
  3.0000e+02  3.0000e+02  3.0000e+02  3.0000e+02  3.0000e+02  3.0000e+02  3.0000e+02  3.0000e+02  3.0000e+02  3.0000e+02
  3.0000e+02  3.0000e+02  3.0000e+02  3.0000e+02  3.0000e+02  3.0000e+02  3.0000e+02  3.0000e+02  3.0000e+02  3.0000e+02
  3.0000e+02  3.0000e+02  3.0000e+02  3.0000e+02  3.0000e+02  3.0000e+02  3.0000e+02  3.0000e+02  3.0000e+02  3.0000e+02
  3.0000e+02  3.0000e+02  3.0000e+02  3.0000e+02  3.0000e+02  3.0000e+02  3.0000e+02  3.0000e+02  3.0000e+02  3.0000e+02
  3.0000e+02  3.0000e+02  3.0000e+02  3.0000e+02  3.0000e+02  3.0000e+02  3.0000e+02  3.0000e+02  3.0000e+02  2.8972e+02
         1   1.00000(10e12.4)                   -1     STARTING HEADS Layer   5
  3.0000e+02  3.0000e+02  3.0000e+02  3.0000e+02  3.0000e+02  3.0000e+02  3.0000e+02  3.0000e+02  3.0000e+02  3.0000e+02
  3.0000e+02  3.0000e+02  3.0000e+02  3.0000e+02  3.0000e+02  3.0000e+02  3.0000e+02  3.0000e+02  3.0000e+02  3.0000e+02
  3.0000e+02  3.0000e+02  3.0000e+02  3.0000e+02  3.0000e+02  3.0000e+02  3.0000e+02  3.0000e+02  3.0000e+02  3.0000e+02
  3.0000e+02  3.0000e+02  3.0000e+02  3.0000e+02  3.0000e+02  3.0000e+02  3.0000e+02  3.0000e+02  3.0000e+02  3.0000e+02
  3.0000e+02  3.0000e+02  3.0000e+02  3.0000e+02  3.0000e+02  3.0000e+02  3.0000e+02  3.0000e+02  3.0000e+02  3.0000e+02
  3.0000e+02  3.0000e+02  3.0000e+02  3.0000e+02  3.0000e+02  3.0000e+02  3.0000e+02  3.0000e+02  3.0000e+02  3.0000e+02
  3.0000e+02  3.0000e+02  3.0000e+02  3.0000e+02  3.0000e+02  3.0000e+02  3.0000e+02  3.0000e+02  3.0000e+02  3.0000e+02
  3.0000e+02  3.0000e+02  3.0000e+02  3.0000e+02  3.0000e+02  3.0000e+02  3.0000e+02  3.0000e+02  3.0000e+02  3.0000e+02
  3.0000e+02  3.0000e+02  3.0000e+02  3.0000e+02  3.0000e+02  3.0000e+02  3.0000e+02  3.0000e+02  3.0000e+02  3.0000e+02
  3.0000e+02  3.0000e+02  3.0000e+02  3.0000e+02  3.0000e+02  3.0000e+02  3.0000e+02  3.0000e+02  3.0000e+02  3.0000e+02
  3.0000e+02  3.0000e+02  3.0000e+02  3.0000e+02  3.0000e+02  3.0000e+02  3.0000e+02  3.0000e+02  3.0000e+02  3.0000e+02
  3.0000e+02  3.0000e+02  3.0000e+02  3.0000e+02  3.0000e+02  3.0000e+02  3.0000e+02  3.0000e+02  3.0000e+02  3.0000e+02
  3.0000e+02  3.0000e+02  3.0000e+02  3.0000e+02  3.0000e+02  3.0000e+02  3.0000e+02  3.0000e+02  3.0000e+02  3.0000e+02
  3.0000e+02  3.0000e+02  3.0000e+02  3.0000e+02  3.0000e+02  3.0000e+02  3.0000e+02  3.0000e+02  3.0000e+02  3.0000e+02
  3.0000e+02  3.0000e+02  3.0000e+02  3.0000e+02  3.0000e+02  3.0000e+02  3.0000e+02  3.0000e+02  3.0000e+02  2.8972e+02
         1   1.00000(10e12.4)                   -1     STARTING HEADS Layer   6
  3.0000e+02  3.0000e+02  3.0000e+02  3.0000e+02  3.0000e+02  3.0000e+02  3.0000e+02  3.0000e+02  3.0000e+02  3.0000e+02
  3.0000e+02  3.0000e+02  3.0000e+02  3.0000e+02  3.0000e+02  3.0000e+02  3.0000e+02  3.0000e+02  3.0000e+02  3.0000e+02
  3.0000e+02  3.0000e+02  3.0000e+02  3.0000e+02  3.0000e+02  3.0000e+02  3.0000e+02  3.0000e+02  3.0000e+02  3.0000e+02
  3.0000e+02  3.0000e+02  3.0000e+02  3.0000e+02  3.0000e+02  3.0000e+02  3.0000e+02  3.0000e+02  3.0000e+02  3.0000e+02
  3.0000e+02  3.0000e+02  3.0000e+02  3.0000e+02  3.0000e+02  3.0000e+02  3.0000e+02  3.0000e+02  3.0000e+02  3.0000e+02
  3.0000e+02  3.0000e+02  3.0000e+02  3.0000e+02  3.0000e+02  3.0000e+02  3.0000e+02  3.0000e+02  3.0000e+02  3.0000e+02
  3.0000e+02  3.0000e+02  3.0000e+02  3.0000e+02  3.0000e+02  3.0000e+02  3.0000e+02  3.0000e+02  3.0000e+02  3.0000e+02
  3.0000e+02  3.0000e+02  3.0000e+02  3.0000e+02  3.0000e+02  3.0000e+02  3.0000e+02  3.0000e+02  3.0000e+02  3.0000e+02
  3.0000e+02  3.0000e+02  3.0000e+02  3.0000e+02  3.0000e+02  3.0000e+02  3.0000e+02  3.0000e+02  3.0000e+02  3.0000e+02
  3.0000e+02  3.0000e+02  3.0000e+02  3.0000e+02  3.0000e+02  3.0000e+02  3.0000e+02  3.0000e+02  3.0000e+02  3.0000e+02
  3.0000e+02  3.0000e+02  3.0000e+02  3.0000e+02  3.0000e+02  3.0000e+02  3.0000e+02  3.0000e+02  3.0000e+02  3.0000e+02
  3.0000e+02  3.0000e+02  3.0000e+02  3.0000e+02  3.0000e+02  3.0000e+02  3.0000e+02  3.0000e+02  3.0000e+02  3.0000e+02
  3.0000e+02  3.0000e+02  3.0000e+02  3.0000e+02  3.0000e+02  3.0000e+02  3.0000e+02  3.0000e+02  3.0000e+02  3.0000e+02
  3.0000e+02  3.0000e+02  3.0000e+02  3.0000e+02  3.0000e+02  3.0000e+02  3.0000e+02  3.0000e+02  3.0000e+02  3.0000e+02
  3.0000e+02  3.0000e+02  3.0000e+02  3.0000e+02  3.0000e+02  3.0000e+02  3.0000e+02  3.0000e+02  3.0000e+02  2.8972e+02
         1   1.00000(10e12.4)                   -1     STARTING HEADS Layer   7
  3.0000e+02  3.0000e+02  3.0000e+02  3.0000e+02  3.0000e+02  3.0000e+02  3.0000e+02  3.0000e+02  3.0000e+02  3.0000e+02
  3.0000e+02  3.0000e+02  3.0000e+02  3.0000e+02  3.0000e+02  3.0000e+02  3.0000e+02  3.0000e+02  3.0000e+02  3.0000e+02
  3.0000e+02  3.0000e+02  3.0000e+02  3.0000e+02  3.0000e+02  3.0000e+02  3.0000e+02  3.0000e+02  3.0000e+02  3.0000e+02
  3.0000e+02  3.0000e+02  3.0000e+02  3.0000e+02  3.0000e+02  3.0000e+02  3.0000e+02  3.0000e+02  3.0000e+02  3.0000e+02
  3.0000e+02  3.0000e+02  3.0000e+02  3.0000e+02  3.0000e+02  3.0000e+02  3.0000e+02  3.0000e+02  3.0000e+02  3.0000e+02
  3.0000e+02  3.0000e+02  3.0000e+02  3.0000e+02  3.0000e+02  3.0000e+02  3.0000e+02  3.0000e+02  3.0000e+02  3.0000e+02
  3.0000e+02  3.0000e+02  3.0000e+02  3.0000e+02  3.0000e+02  3.0000e+02  3.0000e+02  3.0000e+02  3.0000e+02  3.0000e+02
  3.0000e+02  3.0000e+02  3.0000e+02  3.0000e+02  3.0000e+02  3.0000e+02  3.0000e+02  3.0000e+02  3.0000e+02  3.0000e+02
  3.0000e+02  3.0000e+02  3.0000e+02  3.0000e+02  3.0000e+02  3.0000e+02  3.0000e+02  3.0000e+02  3.0000e+02  3.0000e+02
  3.0000e+02  3.0000e+02  3.0000e+02  3.0000e+02  3.0000e+02  3.0000e+02  3.0000e+02  3.0000e+02  3.0000e+02  3.0000e+02
  3.0000e+02  3.0000e+02  3.0000e+02  3.0000e+02  3.0000e+02  3.0000e+02  3.0000e+02  3.0000e+02  3.0000e+02  3.0000e+02
  3.0000e+02  3.0000e+02  3.0000e+02  3.0000e+02  3.0000e+02  3.0000e+02  3.0000e+02  3.0000e+02  3.0000e+02  3.0000e+02
  3.0000e+02  3.0000e+02  3.0000e+02  3.0000e+02  3.0000e+02  3.0000e+02  3.0000e+02  3.0000e+02  3.0000e+02  3.0000e+02
  3.0000e+02  3.0000e+02  3.0000e+02  3.0000e+02  3.0000e+02  3.0000e+02  3.0000e+02  3.0000e+02  3.0000e+02  3.0000e+02
  3.0000e+02  3.0000e+02  3.0000e+02  3.0000e+02  3.0000e+02  3.0000e+02  3.0000e+02  3.0000e+02  3.0000e+02  2.8972e+02
         1   1.00000(10e12.4)                   -1     STARTING HEADS Layer   8
  3.0000e+02  3.0000e+02  3.0000e+02  3.0000e+02  3.0000e+02  3.0000e+02  3.0000e+02  3.0000e+02  3.0000e+02  3.0000e+02
  3.0000e+02  3.0000e+02  3.0000e+02  3.0000e+02  3.0000e+02  3.0000e+02  3.0000e+02  3.0000e+02  3.0000e+02  3.0000e+02
  3.0000e+02  3.0000e+02  3.0000e+02  3.0000e+02  3.0000e+02  3.0000e+02  3.0000e+02  3.0000e+02  3.0000e+02  3.0000e+02
  3.0000e+02  3.0000e+02  3.0000e+02  3.0000e+02  3.0000e+02  3.0000e+02  3.0000e+02  3.0000e+02  3.0000e+02  3.0000e+02
  3.0000e+02  3.0000e+02  3.0000e+02  3.0000e+02  3.0000e+02  3.0000e+02  3.0000e+02  3.0000e+02  3.0000e+02  3.0000e+02
  3.0000e+02  3.0000e+02  3.0000e+02  3.0000e+02  3.0000e+02  3.0000e+02  3.0000e+02  3.0000e+02  3.0000e+02  3.0000e+02
  3.0000e+02  3.0000e+02  3.0000e+02  3.0000e+02  3.0000e+02  3.0000e+02  3.0000e+02  3.0000e+02  3.0000e+02  3.0000e+02
  3.0000e+02  3.0000e+02  3.0000e+02  3.0000e+02  3.0000e+02  3.0000e+02  3.0000e+02  3.0000e+02  3.0000e+02  3.0000e+02
  3.0000e+02  3.0000e+02  3.0000e+02  3.0000e+02  3.0000e+02  3.0000e+02  3.0000e+02  3.0000e+02  3.0000e+02  3.0000e+02
  3.0000e+02  3.0000e+02  3.0000e+02  3.0000e+02  3.0000e+02  3.0000e+02  3.0000e+02  3.0000e+02  3.0000e+02  3.0000e+02
  3.0000e+02  3.0000e+02  3.0000e+02  3.0000e+02  3.0000e+02  3.0000e+02  3.0000e+02  3.0000e+02  3.0000e+02  3.0000e+02
  3.0000e+02  3.0000e+02  3.0000e+02  3.0000e+02  3.0000e+02  3.0000e+02  3.0000e+02  3.0000e+02  3.0000e+02  3.0000e+02
  3.0000e+02  3.0000e+02  3.0000e+02  3.0000e+02  3.0000e+02  3.0000e+02  3.0000e+02  3.0000e+02  3.0000e+02  3.0000e+02
  3.0000e+02  3.0000e+02  3.0000e+02  3.0000e+02  3.0000e+02  3.0000e+02  3.0000e+02  3.0000e+02  3.0000e+02  3.0000e+02
  3.0000e+02  3.0000e+02  3.0000e+02  3.0000e+02  3.0000e+02  3.0000e+02  3.0000e+02  3.0000e+02  3.0000e+02  2.8972e+02
         1   1.00000(10e12.4)                   -1     STARTING HEADS Layer   9
  3.0000e+02  3.0000e+02  3.0000e+02  3.0000e+02  3.0000e+02  3.0000e+02  3.0000e+02  3.0000e+02  3.0000e+02  3.0000e+02
  3.0000e+02  3.0000e+02  3.0000e+02  3.0000e+02  3.0000e+02  3.0000e+02  3.0000e+02  3.0000e+02  3.0000e+02  3.0000e+02
  3.0000e+02  3.0000e+02  3.0000e+02  3.0000e+02  3.0000e+02  3.0000e+02  3.0000e+02  3.0000e+02  3.0000e+02  3.0000e+02
  3.0000e+02  3.0000e+02  3.0000e+02  3.0000e+02  3.0000e+02  3.0000e+02  3.0000e+02  3.0000e+02  3.0000e+02  3.0000e+02
  3.0000e+02  3.0000e+02  3.0000e+02  3.0000e+02  3.0000e+02  3.0000e+02  3.0000e+02  3.0000e+02  3.0000e+02  3.0000e+02
  3.0000e+02  3.0000e+02  3.0000e+02  3.0000e+02  3.0000e+02  3.0000e+02  3.0000e+02  3.0000e+02  3.0000e+02  3.0000e+02
  3.0000e+02  3.0000e+02  3.0000e+02  3.0000e+02  3.0000e+02  3.0000e+02  3.0000e+02  3.0000e+02  3.0000e+02  3.0000e+02
  3.0000e+02  3.0000e+02  3.0000e+02  3.0000e+02  3.0000e+02  3.0000e+02  3.0000e+02  3.0000e+02  3.0000e+02  3.0000e+02
  3.0000e+02  3.0000e+02  3.0000e+02  3.0000e+02  3.0000e+02  3.0000e+02  3.0000e+02  3.0000e+02  3.0000e+02  3.0000e+02
  3.0000e+02  3.0000e+02  3.0000e+02  3.0000e+02  3.0000e+02  3.0000e+02  3.0000e+02  3.0000e+02  3.0000e+02  3.0000e+02
  3.0000e+02  3.0000e+02  3.0000e+02  3.0000e+02  3.0000e+02  3.0000e+02  3.0000e+02  3.0000e+02  3.0000e+02  3.0000e+02
  3.0000e+02  3.0000e+02  3.0000e+02  3.0000e+02  3.0000e+02  3.0000e+02  3.0000e+02  3.0000e+02  3.0000e+02  3.0000e+02
  3.0000e+02  3.0000e+02  3.0000e+02  3.0000e+02  3.0000e+02  3.0000e+02  3.0000e+02  3.0000e+02  3.0000e+02  3.0000e+02
  3.0000e+02  3.0000e+02  3.0000e+02  3.0000e+02  3.0000e+02  3.0000e+02  3.0000e+02  3.0000e+02  3.0000e+02  3.0000e+02
  3.0000e+02  3.0000e+02  3.0000e+02  3.0000e+02  3.0000e+02  3.0000e+02  3.0000e+02  3.0000e+02  3.0000e+02  2.8972e+02
         1   1.00000(10e12.4)                   -1     STARTING HEADS Layer  10
  3.0000e+02  3.0000e+02  3.0000e+02  3.0000e+02  3.0000e+02  3.0000e+02  3.0000e+02  3.0000e+02  3.0000e+02  3.0000e+02
  3.0000e+02  3.0000e+02  3.0000e+02  3.0000e+02  3.0000e+02  3.0000e+02  3.0000e+02  3.0000e+02  3.0000e+02  3.0000e+02
  3.0000e+02  3.0000e+02  3.0000e+02  3.0000e+02  3.0000e+02  3.0000e+02  3.0000e+02  3.0000e+02  3.0000e+02  3.0000e+02
  3.0000e+02  3.0000e+02  3.0000e+02  3.0000e+02  3.0000e+02  3.0000e+02  3.0000e+02  3.0000e+02  3.0000e+02  3.0000e+02
  3.0000e+02  3.0000e+02  3.0000e+02  3.0000e+02  3.0000e+02  3.0000e+02  3.0000e+02  3.0000e+02  3.0000e+02  3.0000e+02
  3.0000e+02  3.0000e+02  3.0000e+02  3.0000e+02  3.0000e+02  3.0000e+02  3.0000e+02  3.0000e+02  3.0000e+02  3.0000e+02
  3.0000e+02  3.0000e+02  3.0000e+02  3.0000e+02  3.0000e+02  3.0000e+02  3.0000e+02  3.0000e+02  3.0000e+02  3.0000e+02
  3.0000e+02  3.0000e+02  3.0000e+02  3.0000e+02  3.0000e+02  3.0000e+02  3.0000e+02  3.0000e+02  3.0000e+02  3.0000e+02
  3.0000e+02  3.0000e+02  3.0000e+02  3.0000e+02  3.0000e+02  3.0000e+02  3.0000e+02  3.0000e+02  3.0000e+02  3.0000e+02
  3.0000e+02  3.0000e+02  3.0000e+02  3.0000e+02  3.0000e+02  3.0000e+02  3.0000e+02  3.0000e+02  3.0000e+02  3.0000e+02
  3.0000e+02  3.0000e+02  3.0000e+02  3.0000e+02  3.0000e+02  3.0000e+02  3.0000e+02  3.0000e+02  3.0000e+02  3.0000e+02
  3.0000e+02  3.0000e+02  3.0000e+02  3.0000e+02  3.0000e+02  3.0000e+02  3.0000e+02  3.0000e+02  3.0000e+02  3.0000e+02
  3.0000e+02  3.0000e+02  3.0000e+02  3.0000e+02  3.0000e+02  3.0000e+02  3.0000e+02  3.0000e+02  3.0000e+02  3.0000e+02
  3.0000e+02  3.0000e+02  3.0000e+02  3.0000e+02  3.0000e+02  3.0000e+02  3.0000e+02  3.0000e+02  3.0000e+02  3.0000e+02
  3.0000e+02  3.0000e+02  3.0000e+02  3.0000e+02  3.0000e+02  3.0000e+02  3.0000e+02  3.0000e+02  3.0000e+02  2.8972e+02
         1   1.00000(10e12.4)                   -1     STARTING HEADS Layer  11
  3.0000e+02  3.0000e+02  3.0000e+02  3.0000e+02  3.0000e+02  3.0000e+02  3.0000e+02  3.0000e+02  3.0000e+02  3.0000e+02
  3.0000e+02  3.0000e+02  3.0000e+02  3.0000e+02  3.0000e+02  3.0000e+02  3.0000e+02  3.0000e+02  3.0000e+02  3.0000e+02
  3.0000e+02  3.0000e+02  3.0000e+02  3.0000e+02  3.0000e+02  3.0000e+02  3.0000e+02  3.0000e+02  3.0000e+02  3.0000e+02
  3.0000e+02  3.0000e+02  3.0000e+02  3.0000e+02  3.0000e+02  3.0000e+02  3.0000e+02  3.0000e+02  3.0000e+02  3.0000e+02
  3.0000e+02  3.0000e+02  3.0000e+02  3.0000e+02  3.0000e+02  3.0000e+02  3.0000e+02  3.0000e+02  3.0000e+02  3.0000e+02
  3.0000e+02  3.0000e+02  3.0000e+02  3.0000e+02  3.0000e+02  3.0000e+02  3.0000e+02  3.0000e+02  3.0000e+02  3.0000e+02
  3.0000e+02  3.0000e+02  3.0000e+02  3.0000e+02  3.0000e+02  3.0000e+02  3.0000e+02  3.0000e+02  3.0000e+02  3.0000e+02
  3.0000e+02  3.0000e+02  3.0000e+02  3.0000e+02  3.0000e+02  3.0000e+02  3.0000e+02  3.0000e+02  3.0000e+02  3.0000e+02
  3.0000e+02  3.0000e+02  3.0000e+02  3.0000e+02  3.0000e+02  3.0000e+02  3.0000e+02  3.0000e+02  3.0000e+02  3.0000e+02
  3.0000e+02  3.0000e+02  3.0000e+02  3.0000e+02  3.0000e+02  3.0000e+02  3.0000e+02  3.0000e+02  3.0000e+02  3.0000e+02
  3.0000e+02  3.0000e+02  3.0000e+02  3.0000e+02  3.0000e+02  3.0000e+02  3.0000e+02  3.0000e+02  3.0000e+02  3.0000e+02
  3.0000e+02  3.0000e+02  3.0000e+02  3.0000e+02  3.0000e+02  3.0000e+02  3.0000e+02  3.0000e+02  3.0000e+02  3.0000e+02
  3.0000e+02  3.0000e+02  3.0000e+02  3.0000e+02  3.0000e+02  3.0000e+02  3.0000e+02  3.0000e+02  3.0000e+02  3.0000e+02
  3.0000e+02  3.0000e+02  3.0000e+02  3.0000e+02  3.0000e+02  3.0000e+02  3.0000e+02  3.0000e+02  3.0000e+02  3.0000e+02
  3.0000e+02  3.0000e+02  3.0000e+02  3.0000e+02  3.0000e+02  3.0000e+02  3.0000e+02  3.0000e+02  3.0000e+02  2.8972e+02
         1   1.00000(10e12.4)                   -1     STARTING HEADS Layer  12
  3.0000e+02  3.0000e+02  3.0000e+02  3.0000e+02  3.0000e+02  3.0000e+02  3.0000e+02  3.0000e+02  3.0000e+02  3.0000e+02
  3.0000e+02  3.0000e+02  3.0000e+02  3.0000e+02  3.0000e+02  3.0000e+02  3.0000e+02  3.0000e+02  3.0000e+02  3.0000e+02
  3.0000e+02  3.0000e+02  3.0000e+02  3.0000e+02  3.0000e+02  3.0000e+02  3.0000e+02  3.0000e+02  3.0000e+02  3.0000e+02
  3.0000e+02  3.0000e+02  3.0000e+02  3.0000e+02  3.0000e+02  3.0000e+02  3.0000e+02  3.0000e+02  3.0000e+02  3.0000e+02