MT3DMS Benchmark Test Problem #9
transport in a 2d flow field with a low-K zone
         1        18        14         2         1         1         0 # Data Set 3: NLAY NROW NCOL NPER NCOMP MCOMP, IATS
 sec   m   g # Data Set 4: TUNIT LUNIT MUNIT

 0 # Data Set 6: LAYCON
         0       100                            12 # DELR
         0       100                            12 # DELC
         0        10                            12 # TOP
         0        10                            12 # Data Set 10: DZ Layer: 1
         0       0.3                            12 # Data Set 11: PRSITY, Layer: 1
         0         1                             5 # Data Set 12: ICBUND, Layer: 1
         0         0                            12 # Data Set 13: SCONC: Comp1, Layer: 1
      -999         0 # Data Set 14: CINACT, THKMIN
        12         5        12        12         T # Data set 15: IFMTCN IFMTNP IFMTRF IFMTDP SAVUCN
         0 # Data Set 16, NPRS
         2         1 # Data set 18, NOBS NPROBS
         1         4         7
         1        11         7
         T         1 # Data Set 20: CHKMAS NPRMAS
  31536005         1         1 # Data Set 21: PERLEN NSTP TSMULT SSflag (Stress period 1)
         0      1000         1         0 # Data Set 23: DT0, MXSTRN, TTSMULT, TTSMAX
  31536005         1         1 # Data Set 21: PERLEN NSTP TSMULT SSflag (Stress period 2)
         0      1000         1         0 # Data Set 23: DT0, MXSTRN, TTSMULT, TTSMAX
