# Name File for MT3DMS created on 2/19/2019 by ModelMuse
LIST              16    ImportedP9.mls
FTL               10    ImportedP9.ftl
ADV                2    ImportedP9.adv
BTN                1    ImportedP9.btn
DSP                3    ImportedP9.dsp
SSM                4    ImportedP9.ssm
GCG                9    ImportedP9.gcg
DATA              17    ImportedP9.cnf
DATA             601    ImportedP9_Comp1_4mf5._mas
DATA             401    ImportedP9_Comp1_4mf5.mto
DATA(BINARY)     201    ImportedP9_Comp1_4mf5.ucn
