# MODFLOW2000 - Link-MT3DMS Package Input File
OUTPUT_FILE_NAME cts3.ftl
OUTPUT_FILE_UNIT 34
OUTPUT_FILE_HEADER Extended
OUTPUT_FILE_FORMAT FORMATTED
