 'MT3D4.00.00'          12           0           0           0           0
           0         120           0           2           0           0
           0           0           0           0           0           0
           0           0           0           0
           1           1          31          31           1
 'THKSAT          '
  -111.0000      -111.0000      -111.0000      -111.0000      -111.0000    
  -111.0000      -111.0000      -111.0000      -111.0000      -111.0000    
  -111.0000      -111.0000      -111.0000      -111.0000      -111.0000    
  -111.0000      -111.0000      -111.0000      -111.0000      -111.0000    
  -111.0000      -111.0000      -111.0000      -111.0000      -111.0000    
  -111.0000      -111.0000      -111.0000      -111.0000      -111.0000    
  -111.0000      -111.0000      -111.0000      -111.0000      -111.0000    
  -111.0000      -111.0000      -111.0000      -111.0000      -111.0000    
  -111.0000      -111.0000      -111.0000      -111.0000      -111.0000    
  -111.0000      -111.0000      -111.0000      -111.0000      -111.0000    
  -111.0000      -111.0000      -111.0000      -111.0000      -111.0000    
  -111.0000      -111.0000      -111.0000      -111.0000      -111.0000    
  -111.0000      -111.0000      -111.0000      -111.0000      -111.0000    
  -111.0000      -111.0000      -111.0000      -111.0000      -111.0000    
  -111.0000      -111.0000      -111.0000      -111.0000      -111.0000    
  -111.0000      -111.0000      -111.0000      -111.0000      -111.0000    
  -111.0000      -111.0000      -111.0000      -111.0000      -111.0000    
  -111.0000      -111.0000      -111.0000      -111.0000      -111.0000    
  -111.0000      -111.0000      -111.0000      -111.0000      -111.0000    
  -111.0000      -111.0000      -111.0000      -111.0000      -111.0000    
  -111.0000      -111.0000      -111.0000      -111.0000      -111.0000    
  -111.0000      -111.0000      -111.0000      -111.0000      -111.0000    
  -111.0000      -111.0000      -111.0000      -111.0000      -111.0000    
  -111.0000      -111.0000      -111.0000      -111.0000      -111.0000    
  -111.0000      -111.0000      -111.0000      -111.0000      -111.0000    
  -111.0000      -111.0000      -111.0000      -111.0000      -111.0000    
  -111.0000      -111.0000      -111.0000      -111.0000      -111.0000    
  -111.0000      -111.0000      -111.0000      -111.0000      -111.0000    
  -111.0000      -111.0000      -111.0000      -111.0000      -111.0000    
  -111.0000      -111.0000      -111.0000      -111.0000      -111.0000    
  -111.0000      -111.0000      -111.0000      -111.0000      -111.0000    
  -111.0000      -111.0000      -111.0000      -111.0000      -111.0000    
  -111.0000      -111.0000      -111.0000      -111.0000      -111.0000    
  -111.0000      -111.0000      -111.0000      -111.0000      -111.0000    
  -111.0000      -111.0000      -111.0000      -111.0000      -111.0000    
  -111.0000      -111.0000      -111.0000      -111.0000      -111.0000    
  -111.0000      -111.0000      -111.0000      -111.0000      -111.0000    
  -111.0000      -111.0000      -111.0000      -111.0000      -111.0000    
  -111.0000      -111.0000      -111.0000      -111.0000      -111.0000    
  -111.0000      -111.0000      -111.0000      -111.0000      -111.0000    
  -111.0000      -111.0000      -111.0000      -111.0000      -111.0000    
  -111.0000      -111.0000      -111.0000      -111.0000      -111.0000    
  -111.0000      -111.0000      -111.0000      -111.0000      -111.0000    
  -111.0000      -111.0000      -111.0000      -111.0000      -111.0000    
  -111.0000      -111.0000      -111.0000      -111.0000      -111.0000    
  -111.0000      -111.0000      -111.0000      -111.0000      -111.0000    
  -111.0000      -111.0000      -111.0000      -111.0000      -111.0000    
  -111.0000      -111.0000      -111.0000      -111.0000      -111.0000    
  -111.0000      -111.0000      -111.0000      -111.0000      -111.0000    
  -111.0000      -111.0000      -111.0000      -111.0000      -111.0000    
  -111.0000      -111.0000      -111.0000      -111.0000      -111.0000    
  -111.0000      -111.0000      -111.0000      -111.0000      -111.0000    
  -111.0000      -111.0000      -111.0000      -111.0000      -111.0000    
  -111.0000      -111.0000      -111.0000      -111.0000      -111.0000    
  -111.0000      -111.0000      -111.0000      -111.0000      -111.0000    
  -111.0000      -111.0000      -111.0000      -111.0000      -111.0000    
  -111.0000      -111.0000      -111.0000      -111.0000      -111.0000    
  -111.0000      -111.0000      -111.0000      -111.0000      -111.0000    
  -111.0000      -111.0000      -111.0000      -111.0000      -111.0000    
  -111.0000      -111.0000      -111.0000      -111.0000      -111.0000    
  -111.0000      -111.0000      -111.0000      -111.0000      -111.0000    
  -111.0000      -111.0000      -111.0000      -111.0000      -111.0000    
  -111.0000      -111.0000      -111.0000      -111.0000      -111.0000    
  -111.0000      -111.0000      -111.0000      -111.0000      -111.0000    
  -111.0000      -111.0000      -111.0000      -111.0000      -111.0000    
  -111.0000      -111.0000      -111.0000      -111.0000      -111.0000    
  -111.0000      -111.0000      -111.0000      -111.0000      -111.0000    
  -111.0000      -111.0000      -111.0000      -111.0000      -111.0000    
  -111.0000      -111.0000      -111.0000      -111.0000      -111.0000    
  -111.0000      -111.0000      -111.0000      -111.0000      -111.0000    
  -111.0000      -111.0000      -111.0000      -111.0000      -111.0000    
  -111.0000      -111.0000      -111.0000      -111.0000      -111.0000    
  -111.0000      -111.0000      -111.0000      -111.0000      -111.0000    
  -111.0000      -111.0000      -111.0000      -111.0000      -111.0000    
  -111.0000      -111.0000      -111.0000      -111.0000      -111.0000    
  -111.0000      -111.0000      -111.0000      -111.0000      -111.0000    
  -111.0000      -111.0000      -111.0000      -111.0000      -111.0000    
  -111.0000      -111.0000      -111.0000      -111.0000      -111.0000    
  -111.0000      -111.0000      -111.0000      -111.0000      -111.0000    
  -111.0000      -111.0000      -111.0000      -111.0000      -111.0000    
  -111.0000      -111.0000      -111.0000      -111.0000      -111.0000    
  -111.0000      -111.0000      -111.0000      -111.0000      -111.0000    
  -111.0000      -111.0000      -111.0000      -111.0000      -111.0000    
  -111.0000      -111.0000      -111.0000      -111.0000      -111.0000    
  -111.0000      -111.0000      -111.0000      -111.0000      -111.0000    
  -111.0000      -111.0000      -111.0000      -111.0000      -111.0000    
  -111.0000      -111.0000      -111.0000      -111.0000      -111.0000    
  -111.0000      -111.0000      -111.0000      -111.0000      -111.0000    
  -111.0000      -111.0000      -111.0000      -111.0000      -111.0000    
  -111.0000      -111.0000      -111.0000      -111.0000      -111.0000    
  -111.0000      -111.0000      -111.0000      -111.0000      -111.0000    
  -111.0000      -111.0000      -111.0000      -111.0000      -111.0000    
  -111.0000      -111.0000      -111.0000      -111.0000      -111.0000    
  -111.0000      -111.0000      -111.0000      -111.0000      -111.0000    
  -111.0000      -111.0000      -111.0000      -111.0000      -111.0000    
  -111.0000      -111.0000      -111.0000      -111.0000      -111.0000    
  -111.0000      -111.0000      -111.0000      -111.0000      -111.0000    
  -111.0000      -111.0000      -111.0000      -111.0000      -111.0000    
  -111.0000      -111.0000      -111.0000      -111.0000      -111.0000    
  -111.0000      -111.0000      -111.0000      -111.0000      -111.0000    
  -111.0000      -111.0000      -111.0000      -111.0000      -111.0000    
  -111.0000      -111.0000      -111.0000      -111.0000      -111.0000    
  -111.0000      -111.0000      -111.0000      -111.0000      -111.0000    
  -111.0000      -111.0000      -111.0000      -111.0000      -111.0000    
  -111.0000      -111.0000      -111.0000      -111.0000      -111.0000    
  -111.0000      -111.0000      -111.0000      -111.0000      -111.0000    
  -111.0000      -111.0000      -111.0000      -111.0000      -111.0000    
  -111.0000      -111.0000      -111.0000      -111.0000      -111.0000    
  -111.0000      -111.0000      -111.0000      -111.0000      -111.0000    
  -111.0000      -111.0000      -111.0000      -111.0000      -111.0000    
  -111.0000      -111.0000      -111.0000      -111.0000      -111.0000    
  -111.0000      -111.0000      -111.0000      -111.0000      -111.0000    
  -111.0000      -111.0000      -111.0000      -111.0000      -111.0000    
  -111.0000      -111.0000      -111.0000      -111.0000      -111.0000    
  -111.0000      -111.0000      -111.0000      -111.0000      -111.0000    
  -111.0000      -111.0000      -111.0000      -111.0000      -111.0000    
  -111.0000      -111.0000      -111.0000      -111.0000      -111.0000    
  -111.0000      -111.0000      -111.0000      -111.0000      -111.0000    
  -111.0000      -111.0000      -111.0000      -111.0000      -111.0000    
  -111.0000      -111.0000      -111.0000      -111.0000      -111.0000    
  -111.0000      -111.0000      -111.0000      -111.0000      -111.0000    
  -111.0000      -111.0000      -111.0000      -111.0000      -111.0000    
  -111.0000      -111.0000      -111.0000      -111.0000      -111.0000    
  -111.0000      -111.0000      -111.0000      -111.0000      -111.0000    
  -111.0000      -111.0000      -111.0000      -111.0000      -111.0000    
  -111.0000      -111.0000      -111.0000      -111.0000      -111.0000    
  -111.0000      -111.0000      -111.0000      -111.0000      -111.0000    
  -111.0000      -111.0000      -111.0000      -111.0000      -111.0000    
  -111.0000      -111.0000      -111.0000      -111.0000      -111.0000    
  -111.0000      -111.0000      -111.0000      -111.0000      -111.0000    
  -111.0000      -111.0000      -111.0000      -111.0000      -111.0000    
  -111.0000      -111.0000      -111.0000      -111.0000      -111.0000    
  -111.0000      -111.0000      -111.0000      -111.0000      -111.0000    
  -111.0000      -111.0000      -111.0000      -111.0000      -111.0000    
  -111.0000      -111.0000      -111.0000      -111.0000      -111.0000    
  -111.0000      -111.0000      -111.0000      -111.0000      -111.0000    
  -111.0000      -111.0000      -111.0000      -111.0000      -111.0000    
  -111.0000      -111.0000      -111.0000      -111.0000      -111.0000    
  -111.0000      -111.0000      -111.0000      -111.0000      -111.0000    
  -111.0000      -111.0000      -111.0000      -111.0000      -111.0000    
  -111.0000      -111.0000      -111.0000      -111.0000      -111.0000    
  -111.0000      -111.0000      -111.0000      -111.0000      -111.0000    
  -111.0000      -111.0000      -111.0000      -111.0000      -111.0000    
  -111.0000      -111.0000      -111.0000      -111.0000      -111.0000    
  -111.0000      -111.0000      -111.0000      -111.0000      -111.0000    
  -111.0000      -111.0000      -111.0000      -111.0000      -111.0000    
  -111.0000      -111.0000      -111.0000      -111.0000      -111.0000    
  -111.0000      -111.0000      -111.0000      -111.0000      -111.0000    
  -111.0000      -111.0000      -111.0000      -111.0000      -111.0000    
  -111.0000      -111.0000      -111.0000      -111.0000      -111.0000    
  -111.0000      -111.0000      -111.0000      -111.0000      -111.0000    
  -111.0000      -111.0000      -111.0000      -111.0000      -111.0000    
  -111.0000      -111.0000      -111.0000      -111.0000      -111.0000    
  -111.0000      -111.0000      -111.0000      -111.0000      -111.0000    
  -111.0000      -111.0000      -111.0000      -111.0000      -111.0000    
  -111.0000      -111.0000      -111.0000      -111.0000      -111.0000    
  -111.0000      -111.0000      -111.0000      -111.0000      -111.0000    
  -111.0000      -111.0000      -111.0000      -111.0000      -111.0000    
  -111.0000      -111.0000      -111.0000      -111.0000      -111.0000    
  -111.0000      -111.0000      -111.0000      -111.0000      -111.0000    
  -111.0000      -111.0000      -111.0000      -111.0000      -111.0000    
  -111.0000      -111.0000      -111.0000      -111.0000      -111.0000    
  -111.0000      -111.0000      -111.0000      -111.0000      -111.0000    
  -111.0000      -111.0000      -111.0000      -111.0000      -111.0000    
  -111.0000      -111.0000      -111.0000      -111.0000      -111.0000    
  -111.0000      -111.0000      -111.0000      -111.0000      -111.0000    
  -111.0000      -111.0000      -111.0000      -111.0000      -111.0000    
  -111.0000      -111.0000      -111.0000      -111.0000      -111.0000    
  -111.0000      -111.0000      -111.0000      -111.0000      -111.0000    
  -111.0000      -111.0000      -111.0000      -111.0000      -111.0000    
  -111.0000      -111.0000      -111.0000      -111.0000      -111.0000    
  -111.0000      -111.0000      -111.0000      -111.0000      -111.0000    
  -111.0000      -111.0000      -111.0000      -111.0000      -111.0000    
  -111.0000      -111.0000      -111.0000      -111.0000      -111.0000    
  -111.0000      -111.0000      -111.0000      -111.0000      -111.0000    
  -111.0000      -111.0000      -111.0000      -111.0000      -111.0000    
  -111.0000      -111.0000      -111.0000      -111.0000      -111.0000    
  -111.0000      -111.0000      -111.0000      -111.0000      -111.0000    
  -111.0000      -111.0000      -111.0000      -111.0000      -111.0000    
  -111.0000      -111.0000      -111.0000      -111.0000      -111.0000    
  -111.0000      -111.0000      -111.0000      -111.0000      -111.0000    
  -111.0000      -111.0000      -111.0000      -111.0000      -111.0000    
  -111.0000      -111.0000      -111.0000      -111.0000      -111.0000    
  -111.0000      -111.0000      -111.0000      -111.0000      -111.0000    
  -111.0000      -111.0000      -111.0000      -111.0000      -111.0000    
  -111.0000      -111.0000      -111.0000      -111.0000      -111.0000    
  -111.0000      -111.0000      -111.0000      -111.0000      -111.0000    
  -111.0000      -111.0000      -111.0000      -111.0000      -111.0000    
  -111.0000      -111.0000      -111.0000      -111.0000      -111.0000    
  -111.0000      -111.0000      -111.0000      -111.0000      -111.0000    
  -111.0000      -111.0000      -111.0000      -111.0000      -111.0000    
  -111.0000      -111.0000      -111.0000      -111.0000      -111.0000    
  -111.0000    
           1           1          31          31           1
 'QXX             '
   458.0000       455.7000       450.7000       442.5000       430.5000    
   414.2000       393.0000       366.5000       334.2000       296.0000    
   252.1000       202.7000       148.5000       90.60000       30.50000    
  -30.50000      -90.60000      -148.5000      -202.7000      -252.1000    
  -296.0000      -334.2000      -366.5000      -393.0000      -414.2000    
  -430.5000      -442.5000      -450.7000      -455.7000      -458.0000    
  0.0000000E+00   4472.379       4260.243       3792.010       3018.362    
   1954.269       761.3147      -278.5704      -1009.758      -1431.390    
  -1619.370      -1660.283      -1622.165      -1549.227      -1466.303    
  -1385.032      -1308.954      -1236.684      -1163.981      -1084.550    
  -990.5200      -872.7689      -722.0560      -532.2659      -307.1832    
  -67.90807       151.0208       327.4712       455.4848       537.7354    
   578.6786      0.0000000E+00   8701.195       8320.881       7438.737    
   5884.667       3606.900       955.3600      -1258.839      -2695.571    
  -3430.630      -3681.809      -3651.696      -3481.849      -3256.941    
  -3021.554      -2795.369      -2583.600      -2383.201      -2186.190    
  -1981.001      -1752.661      -1482.500      -1148.989      -733.3244    
  -235.5586       298.7301       775.0200       1145.879       1407.432    
   1572.478       1654.000      0.0000000E+00   13315.33       12883.35    
   11757.39       9474.668       5633.305       712.0641      -3016.573    
  -5083.058      -5913.750      -6025.539      -5782.843      -5396.595    
  -4975.132      -4567.603      -4191.291      -3846.877      -3526.329    
  -3216.576      -2900.602      -2556.622      -2155.580      -1658.077    
  -1016.484      -200.4570       723.3670       1504.450       2073.593    
   2455.888       2690.745       2805.844      0.0000000E+00   18369.64    
   18139.79       17232.81       14623.31       8739.588      -723.8350    
  -6436.461      -8706.338      -9115.772      -8723.754      -8057.544    
  -7346.555      -6679.392      -6082.433      -5555.315      -5086.290    
  -4658.661      -4253.184      -3848.210      -3417.646      -2925.120    
  -2311.256      -1474.077      -273.1526       1290.745       2445.820    
   3188.155       3651.781       3928.771       4064.586      0.0000000E+00
   23665.80       24073.37       24410.74       23046.18       15425.57    
  -5910.531      -13299.10      -14190.06      -13119.25      -11696.16    
  -10377.02      -9252.689      -8313.445      -7527.423      -6861.248    
  -6284.304      -5768.841      -5289.288      -4821.409      -4340.632    
  -3815.997      -3187.748      -2295.416      -708.8212       2266.945    
   3799.931       4581.425       5034.310       5307.970       5447.145    
  0.0000000E+00   28570.68       30077.16       33290.60       37725.09    
   35827.05      -25044.76      -26659.35      -21635.54      -17475.01    
  -14564.62      -12501.69      -10973.74      -9794.277      -8852.564    
  -8077.950      -7420.836      -6843.114      -6313.716      -5807.507    
  -5307.474      -4810.490      -4328.324      -3811.017      -2533.661    
   4685.925       5905.533       6303.307       6596.061       6821.657    
   6952.577      0.0000000E+00   31990.28       34374.00       40949.40    
   58736.53       115202.3      -103436.2      -46658.00      -28217.74    
  -20580.64      -16585.60      -14091.41      -12346.28      -11037.37    
  -10010.61      -9177.151      -8477.979      -7869.062      -7314.956    
  -6787.430      -6271.267      -5790.164      -5504.042      -6086.667    
  -10300.73       13104.88       8832.970       8130.207       8224.972    
   8430.019       8567.729      0.0000000E+00   33052.66       34479.17    
   37396.46       41069.34       37681.82      -25244.36      -28318.70    
  -23996.80      -20044.20      -17105.72      -14932.05      -13282.62    
  -11998.29      -10975.35      -10142.07      -9444.862      -8840.202    
  -8289.614      -7755.990      -7200.000      -6574.857      -5811.011    
  -4730.880      -2487.482       6001.373       8191.254       9159.582    
   9743.597       10105.72       10294.09      0.0000000E+00   32720.83    
   33093.55       33087.92       30462.57       19700.00      -6904.346    
  -17375.66      -19406.53      -18493.66      -16861.03      -15248.48    
  -13853.84      -12697.84      -11750.42      -10970.91      -10319.20    
  -9757.269      -9247.310      -8746.915      -8197.887      -7498.254    
  -6434.265      -4538.358      -919.6879       5196.833       8771.092    
   10573.27       11484.12       11955.17       12176.53      0.0000000E+00
   32054.49       32086.28       31399.10       27993.00       17559.95    
  -4697.364      -14873.06      -17760.02      -17662.88      -16596.25    
  -15346.99      -14186.41      -13188.83      -12357.58      -11671.96    
  -11103.75      -10622.36      -10195.44      -9786.473      -9346.378    
  -8786.005      -7889.439      -6068.601      -1849.744       6934.556    
   11123.01       12878.29       13664.43       14054.30       14242.13    
  0.0000000E+00   31400.27       31797.97       32429.19       32550.40    
   27244.16      -14572.00      -19659.19      -19097.59      -17801.60    
  -16514.09      -15356.83      -14355.98      -13513.47      -12819.12    
  -12255.61      -11801.49      -11432.99      -11125.61      -10857.16    
  -10615.15      -10409.95      -10268.88      -9996.860      -7345.245    
   13268.12       15908.10       16152.46       16240.99       16355.50    
   16451.65      0.0000000E+00   30397.74       31276.16       33969.29    
   42535.24       73438.30      -61175.62      -30094.10      -21169.56    
  -17931.84      -16301.69      -15210.25      -14367.21      -13689.96    
  -13149.82      -12729.86      -12413.59      -12182.51      -12016.86    
  -11901.40      -11847.11      -11969.76      -12779.29      -16304.71    
  -30802.49       37575.08       23088.81       19582.47       18791.58    
   18675.05       18707.92      0.0000000E+00   28570.99       28939.63    
   29636.57       30182.97       25949.42      -14274.67      -18372.02    
  -17554.72      -16454.51      -15550.57      -14815.28      -14212.64    
  -13729.32      -13360.36      -13100.41      -12940.51      -12866.59    
  -12857.92      -12884.48      -12902.12      -12842.69      -12573.80    
  -11640.20      -7535.104       15145.88       19289.58       20297.02    
   20667.82       20845.19       20942.87      0.0000000E+00   26433.50    
   26274.82       25454.37       22610.65       14451.09      -3500.472    
  -11564.61      -14222.78      -14780.92      -14630.78      -14287.68    
  -13938.75      -13654.34      -13461.86      -13370.93      -13381.46    
  -13485.40      -13663.77      -13876.46      -14034.21      -13925.09    
  -13033.03      -10147.18      -2843.602       11253.97       18626.61    
   21648.23       22737.47       23095.01       23217.60      0.0000000E+00
   24514.79       24271.75       23295.47       20354.15       12744.77    
  -2613.701      -10163.14      -12990.88      -13815.62      -13903.95    
  -13765.89      -13600.35      -13487.40      -13461.84      -13539.97    
  -13729.01      -14029.78      -14435.28      -14923.41      -15433.14    
  -15790.44      -15486.02      -13071.91      -4946.086       14086.99    
   22314.64       24931.82       25538.84       25579.77       25554.83    
  0.0000000E+00   22900.13       23001.93       23101.61       22765.71    
   18787.55      -9535.961      -13483.39      -13761.97      -13586.73    
  -13403.51      -13271.60      -13209.36      -13233.09      -13358.13    
  -13598.08      -13964.85      -14469.43      -15124.16      -15948.75    
  -16984.51      -18317.52      -20048.71      -21708.34      -17955.82    
   27725.42       31613.17       30225.56       28906.31       28130.41    
   27806.11      0.0000000E+00   21243.78       21734.22       23343.33    
   28819.51       49175.67      -40834.30      -20472.47      -14986.89    
  -13365.82      -12851.75      -12707.62      -12732.42      -12877.46    
  -13139.50      -13529.39      -14062.87      -14758.91      -15643.20    
  -16762.92      -18238.63      -20446.40      -24682.98      -35756.90    
  -72894.29       83157.34       46187.05       35450.94       31730.42    
   30229.44       29673.00      0.0000000E+00   19154.89       19347.82    
   19718.00       19993.34       17129.94      -9704.455      -12585.30    
  -12347.30      -12037.91      -11930.07      -11974.71      -12135.23    
  -12404.82      -12793.02      -13317.10      -13998.33      -14860.16    
  -15926.81      -17221.08      -18760.68      -20546.50      -22479.89    
  -23742.00      -18621.78       29211.21       34526.74       33660.73    
   32334.98       31383.95       30925.54      0.0000000E+00   16927.28    
   16784.16       16187.50       14305.92       9055.190      -2528.151    
  -7816.993      -9779.085      -10508.43      -10855.92      -11125.91    
  -11428.96      -11813.59      -12310.65      -12947.67      -13753.17    
  -14756.59      -15982.81      -17433.92      -19036.52      -20499.00    
  -20948.10      -18109.42      -7062.050       17782.52       29047.97    
   32330.28       32564.84       32045.82       31665.46      0.0000000E+00
   14892.18       14674.06       13941.91       11987.65       7313.054    
  -1646.346      -6375.432      -8443.618      -9360.816      -9859.282    
  -10244.06      -10641.11      -11109.92      -11688.32      -12409.76    
  -13310.11      -14430.21      -15813.92      -17495.29      -19452.46    
  -21464.90      -22704.08      -20685.53      -9299.515       19932.94    
   31552.36       34047.56       33548.27       32569.04       31975.63    
  0.0000000E+00   13119.11       13077.99       12918.43       12389.71    
   9855.722      -4994.856      -7594.770      -8259.140      -8631.934    
  -8976.327      -9349.931      -9781.507      -10296.66      -10922.97    
  -11692.92      -12647.30      -13840.20      -15347.38      -17280.83    
  -19813.14      -23204.06      -27717.79      -32629.11      -29383.42    
   39696.41       43180.98       38759.32       35011.64       32706.45    
   31648.49      0.0000000E+00   11425.34       11600.38       12264.10    
   14797.05       24714.98      -20594.03      -10749.65      -8366.234    
  -7931.451      -8064.164      -8397.828      -8838.329      -9372.233    
  -10013.96      -10791.67      -11745.98      -12935.92      -14454.57    
  -16467.52      -19315.20      -23820.42      -32333.88      -52729.71    
  -115301.5       125055.1       62715.82       42797.11       35032.50    
   31596.64       30225.19      0.0000000E+00   9588.847       9634.071    
   9740.534       9819.411       8401.175      -4946.595      -6443.568    
  -6524.698      -6663.470      -6951.052      -7338.887      -7801.749    
  -8339.987      -8968.976      -9713.808      -10609.04      -11702.91    
  -13067.47      -14819.49      -17159.71      -20428.54      -25067.62    
  -30654.38      -28947.87       37909.75       39830.07       34680.81    
   30724.59       28422.42       27398.14      0.0000000E+00   7733.625    
   7606.528       7244.559       6338.884       4016.906      -1149.958    
  -3553.330      -4625.520      -5246.679      -5737.686      -6204.920    
  -6689.791      -7216.993      -7808.148      -8485.538      -9273.479    
  -10199.21      -11292.89      -12583.28      -14075.61      -15666.40    
  -16853.68      -15872.30      -7745.385       15701.66       24013.90    
   25371.47       24762.65       23970.32       23520.30      0.0000000E+00
   6026.699       5813.859       5292.287       4274.662       2477.522    
  -116.8109      -1994.274      -3177.371      -3960.043      -4548.091    
  -5053.316      -5535.502      -6030.045      -6561.083      -7146.719    
  -7800.130      -8527.544      -9321.604      -10145.12      -10893.06    
  -11307.78      -10808.40      -8235.777      -1863.020       8628.361    
   15152.42       18028.52       18984.21       19175.90       19171.24    
  0.0000000E+00   4548.914       4329.923       3836.068       2989.952    
   1735.333       199.4651      -1129.584      -2129.646      -2868.029    
  -3441.322      -3924.752      -4368.856      -4806.603      -5259.421    
  -5740.125      -6252.780      -6789.234      -7320.871      -7782.522    
  -8043.726      -7863.253      -6836.350      -4399.389      -99.27782    
   5522.391       9938.878       12605.99       13969.77       14577.84    
   14801.22      0.0000000E+00   3302.119       3120.850       2732.112    
   2113.745       1274.394       308.9222      -593.8818      -1343.601    
  -1941.105      -2424.413      -2835.514      -3208.569      -3568.087    
  -3929.873      -4301.578      -4681.630      -5055.744      -5390.124    
  -5620.375      -5636.072      -5265.160      -4274.362      -2426.150    
   342.9064       3621.604       6474.710       8486.801       9711.025    
   10364.47       10642.58      0.0000000E+00   2244.793       2119.246    
   1857.784       1458.523       939.5743       355.7117      -211.2648    
  -709.7689      -1128.380      -1479.710      -1784.324      -2061.817    
  -2327.305      -2590.406      -2854.684      -3116.420      -3361.985    
  -3563.504      -3672.783      -3615.026      -3286.952      -2569.789    
  -1373.754       275.4492       2146.408       3851.559       5155.476    
   6023.063       6526.442       6753.844      0.0000000E+00   1318.016    
   1253.554       1121.256       922.9870       669.6691       385.6152    
   102.8799      -155.8307      -382.9338      -581.7247      -760.2548    
  -927.0703      -1088.909      -1249.762      -1410.332      -1567.381    
  -1712.273      -1829.126      -1892.226      -1864.297      -1697.834    
  -1344.087      -774.5263      -13.76400       837.0211       1629.640    
   2260.481       2699.309       2964.391       3087.511      0.0000000E+00
   458.0000       455.7000       450.7000       442.5000       430.5000    
   414.2000       393.0000       366.5000       334.2000       296.0000    
   252.1000       202.7000       148.5000       90.60000       30.50000    
  -30.50000      -90.60000      -148.5000      -202.7000      -252.1000    
  -296.0000      -334.2000      -366.5000      -393.0000      -414.2000    
  -430.5000      -442.5000      -450.7000      -455.7000      -458.0000    
  0.0000000E+00
           1           1          31          31           1
 'QYY             '
   458.0000       4472.379       8276.922       11618.23       14194.09    
   15717.86       16064.98       15393.41       14017.15       12251.56    
   10336.19       8423.808       6598.942       4901.215       3344.312    