# Name File for MT3DMS created on 2/19/2019 by ModelMuse
LIST              16       ImportMt3dmsZeroth.mls
FT6               10       ImportMt3dmsZeroth.cbc
FT6               20       ImportMt3dmsZeroth.dis.grb
FT6               30       ImportMt3dmsZeroth.bhd
ADV                2       ImportMt3dmsZeroth.adv
BTN                1       ImportMt3dmsZeroth.btn
DSP                3       ImportMt3dmsZeroth.dsp
SSM                4       ImportMt3dmsZeroth.ssm
RCT                8       ImportMt3dmsZeroth.rct
GCG                9       ImportMt3dmsZeroth.gcg
DATA              17       ImportMt3dmsZeroth.cnf
DATA(BINARY)     201       ImportMt3dmsZeroth_Chem1_4mf6.ucn
DATA             401       ImportMt3dmsZeroth_Chem1_4mf6.mto
DATA             601       ImportMt3dmsZeroth_Chem1_4mf6._mas
