# MODFLOW2000 Discretization File
  2   1   1  5  4  0
 0 0 0 0 0 0 0 0 0 0
         0    10.000(10E12.4)                    0     DELTA-X or C
         0    10.000(10E12.4)                    0     DELTA-Y or R
        29     1.000(10E12.4)                   -1     TOP OF MODEL
  2.0000e+01  2.0000e+01  2.0000e+01  2.0000e+01  2.0000e+01  2.0000e+01
        29     1.000(10E12.4)                   -1     BOTTOM OF LAYER 1
  1.0000e+01  1.0000e+01  1.0000e+01  1.0000e+01  1.0000e+01  1.0000e+01
        29     1.000(10E12.4)                   -1     BOTTOM OF LAYER 2
  0.0000e+00  0.0000e+00  0.0000e+00  0.0000e+00  0.0000e+00  0.0000e+00
      2.000000   4 1.000000  TR
      2.000000   4 1.000000  TR
      2.000000   4 1.000000  TR
      2.000000   4 1.000000  TR
      2.000000   4 1.000000  TR
