# MODFLOW2000 Basic Package
#MODFLOW Data Set Created by Groundwater Vistas
#   

         1         1(20I3)                       1     IBOUND Layer   1
  1  
         1         1(20I3)                       1     IBOUND Layer   2
  1  
5.0000e+02
         1     1.000(10e12.4)                    1     STARTING HEADS Layer   1
  9.9999e+00  1.0000e+01  1.0000e+01  1.0000e+01  1.0000e+01  2.0000e+00
         1     1.000(10e12.4)                    1     STARTING HEADS Layer   2
  9.9999e+00  1.0000e+01  1.0000e+01  1.0000e+01  1.0000e+01  2.0000e+00

