# MODFLOW-NWT 1.1 - Link-MT3D-USGS Package Input File
OUTPUT_FILE_NAME LegStor.ftl
OUTPUT_FILE_UNIT 12
OUTPUT_FILE_HEADER Extended
OUTPUT_FILE_FORMAT Unformatted
