# Name File for MODFLOW created on 2/19/2019 by ModelMuse Version 3.10.0.42
BEGIN OPTIONS
  LIST         ImportMt3dP07.lst
  PRINT_INPUT
  SAVE_FLOWS
END OPTIONS

BEGIN PACKAGES
  DIS6         ImportMt3dP07.dis
  IC6          ImportMt3dP07.ic
  NPF6         ImportMt3dP07.npf
  OC6          ImportMt3dP07.oc
  CHD6         ImportMt3dP07.chd
  WEL6         ImportMt3dP07.wel
END PACKAGES
