BEGIN TIMING
  TDIS6    ImportMt3dP07.tdis
END TIMING

BEGIN MODELS
  GWF6     ImportMt3dP07.nam      MODFLOW
END MODELS

BEGIN EXCHANGES
END EXCHANGES

BEGIN SOLUTIONGROUP     1
  MXITER     1
  IMS6       ImportMt3dP07.ims    MODFLOW
END SOLUTIONGROUP

