# MT3DMS Benchmark Test Problem #5
# 2D TRANSPORT IN A RADIAL FLOW FIELD
# Initial Conditions Package file created on 2/19/2019 by ModelMuse version 3.10.0.42.
BEGIN OPTIONS
END OPTIONS

BEGIN GRIDDATA
  STRT LAYERED
    INTERNAL IPRN     12 # STRT Layer 1
        1.473746000000E+001   1.526757000000E+001   1.579502000000E+001   1.631668000000E+001   1.682883000000E+001   1.732709000000E+001   1.780647000000E+001   1.826132000000E+001   1.868546000000E+001   1.907226000000E+001 
        1.941492000000E+001   1.970668000000E+001   1.994124000000E+001   2.011312000000E+001   2.021806000000E+001   2.025335000000E+001   2.021806000000E+001   2.011312000000E+001   1.994124000000E+001   1.970668000000E+001 
        1.941492000000E+001   1.907226000000E+001   1.868546000000E+001   1.826132000000E+001   1.780647000000E+001   1.732709000000E+001   1.682883000000E+001   1.631668000000E+001   1.579502000000E+001   1.526757000000E+001 
        1.473746000000E+001 
        1.526757000000E+001   1.583552000000E+001   1.640341000000E+001   1.696804000000E+001   1.752542000000E+001   1.807087000000E+001   1.859879000000E+001   1.910281000000E+001   1.957569000000E+001   2.000955000000E+001 
        2.039609000000E+001   2.072694000000E+001   2.099414000000E+001   2.119064000000E+001   2.131090000000E+001   2.135141000000E+001   2.131090000000E+001   2.119064000000E+001   2.099414000000E+001   2.072694000000E+001 
        2.039609000000E+001   2.000955000000E+001   1.957569000000E+001   1.910281000000E+001   1.859879000000E+001   1.807087000000E+001   1.752542000000E+001   1.696804000000E+001   1.640341000000E+001   1.583552000000E+001 
        1.526757000000E+001 
        1.579502000000E+001   1.640341000000E+001   1.701498000000E+001   1.762648000000E+001   1.823383000000E+001   1.883201000000E+001   1.941492000000E+001   1.997532000000E+001   2.050486000000E+001   2.099414000000E+001 
        2.143302000000E+001   2.181103000000E+001   2.211798000000E+001   2.234471000000E+001   2.248392000000E+001   2.253086000000E+001   2.248392000000E+001   2.234471000000E+001   2.211798000000E+001   2.181103000000E+001 
        2.143302000000E+001   2.099414000000E+001   2.050486000000E+001   1.997532000000E+001   1.941492000000E+001   1.883201000000E+001   1.823383000000E+001   1.762648000000E+001   1.701498000000E+001   1.640341000000E+001 
        1.579502000000E+001 
        1.631668000000E+001   1.696804000000E+001   1.762648000000E+001   1.828891000000E+001   1.895122000000E+001   1.960823000000E+001   2.025335000000E+001   2.087853000000E+001   2.147414000000E+001   2.202906000000E+001 
        2.253086000000E+001   2.296636000000E+001   2.332235000000E+001   2.358675000000E+001   2.374971000000E+001   2.380478000000E+001   2.374971000000E+001   2.358675000000E+001   2.332235000000E+001   2.296636000000E+001 
        2.253086000000E+001   2.202906000000E+001   2.147414000000E+001   2.087853000000E+001   2.025335000000E+001   1.960823000000E+001   1.895122000000E+001   1.828891000000E+001   1.762648000000E+001   1.696804000000E+001 
        1.631668000000E+001 
        1.682883000000E+001   1.752542000000E+001   1.823383000000E+001   1.895122000000E+001   1.967373000000E+001   2.039609000000E+001   2.111145000000E+001   2.181103000000E+001   2.248392000000E+001   2.311698000000E+001 
        2.369502000000E+001   2.420133000000E+001   2.461869000000E+001   2.493080000000E+001   2.512411000000E+001   2.518961000000E+001   2.512411000000E+001   2.493080000000E+001   2.461869000000E+001   2.420133000000E+001 
        2.369502000000E+001   2.311698000000E+001   2.248392000000E+001   2.181103000000E+001   2.111145000000E+001   2.039609000000E+001   1.967373000000E+001   1.895122000000E+001   1.823383000000E+001   1.752542000000E+001 
        1.682883000000E+001 
        1.732709000000E+001   1.807087000000E+001   1.883201000000E+001   1.960823000000E+001   2.039609000000E+001   2.119064000000E+001   2.198498000000E+001   2.276986000000E+001   2.353316000000E+001   2.425963000000E+001 
        2.493080000000E+001   2.552544000000E+001   2.602073000000E+001   2.639441000000E+001   2.662733000000E+001   2.670652000000E+001   2.662733000000E+001   2.639441000000E+001   2.602073000000E+001   2.552544000000E+001 
        2.493080000000E+001   2.425963000000E+001   2.353316000000E+001   2.276986000000E+001   2.198498000000E+001   2.119064000000E+001   2.039609000000E+001   1.960823000000E+001   1.883201000000E+001   1.807087000000E+001 
        1.732709000000E+001 
        1.780647000000E+001   1.859879000000E+001   1.941492000000E+001   2.025335000000E+001   2.111145000000E+001   2.198498000000E+001   2.286750000000E+001   2.374971000000E+001   2.461869000000E+001   2.545713000000E+001 
        2.624283000000E+001   2.694891000000E+001   2.754495000000E+001   2.799981000000E+001   2.828574000000E+001   2.838338000000E+001   2.828574000000E+001   2.799981000000E+001   2.754495000000E+001   2.694891000000E+001 
        2.624283000000E+001   2.545713000000E+001   2.461869000000E+001   2.374971000000E+001   2.286750000000E+001   2.198498000000E+001   2.111145000000E+001   2.025335000000E+001   1.941492000000E+001   1.859879000000E+001 
        1.780647000000E+001 
        1.826132000000E+001   1.910281000000E+001   1.997532000000E+001   2.087853000000E+001   2.181103000000E+001   2.276986000000E+001   2.374971000000E+001   2.474207000000E+001   2.573395000000E+001   2.670652000000E+001 
        2.763387000000E+001   2.848224000000E+001   2.921090000000E+001   2.977552000000E+001   3.013458000000E+001   3.025795000000E+001   3.013458000000E+001   2.977552000000E+001   2.921090000000E+001   2.848224000000E+001 
        2.763387000000E+001   2.670652000000E+001   2.573395000000E+001   2.474207000000E+001   2.374971000000E+001   2.276986000000E+001   2.181103000000E+001   2.087853000000E+001   1.997532000000E+001   1.910281000000E+001 
        1.826132000000E+001 
        1.868546000000E+001   1.957569000000E+001   2.050486000000E+001   2.147414000000E+001   2.248392000000E+001   2.353316000000E+001   2.461869000000E+001   2.573395000000E+001   2.686728000000E+001   2.799981000000E+001 
        2.910263000000E+001   3.013458000000E+001   3.104131000000E+001   3.175871000000E+001   3.222240000000E+001   3.238317000000E+001   3.222240000000E+001   3.175871000000E+001   3.104131000000E+001   3.013458000000E+001 
        2.910263000000E+001   2.799981000000E+001   2.686728000000E+001   2.573395000000E+001   2.461869000000E+001   2.353316000000E+001   2.248392000000E+001   2.147414000000E+001   2.050486000000E+001   1.957569000000E+001 
        1.868546000000E+001 
        1.907226000000E+001   2.000955000000E+001   2.099414000000E+001   2.202906000000E+001   2.311698000000E+001   2.425963000000E+001   2.545713000000E+001   2.670652000000E+001   2.799981000000E+001   2.932067000000E+001 
        3.064000000000E+001   3.191030000000E+001   3.306083000000E+001   3.399813000000E+001   3.461852000000E+001   3.483655000000E+001   3.461852000000E+001   3.399813000000E+001   3.306083000000E+001   3.191030000000E+001 
        3.064000000000E+001   2.932067000000E+001   2.799981000000E+001   2.670652000000E+001   2.545713000000E+001   2.425963000000E+001   2.311698000000E+001   2.202906000000E+001   2.099414000000E+001   2.000955000000E+001 
        1.907226000000E+001 
        1.941492000000E+001   2.039609000000E+001   2.143302000000E+001   2.253086000000E+001   2.369502000000E+001   2.493080000000E+001   2.624283000000E+001   2.763387000000E+001   2.910263000000E+001   3.064000000000E+001 
        3.222240000000E+001   3.380162000000E+001   3.529140000000E+001   3.655720000000E+001   3.742617000000E+001   3.773829000000E+001   3.742617000000E+001   3.655720000000E+001   3.529140000000E+001   3.380162000000E+001 
        3.222240000000E+001   3.064000000000E+001   2.910263000000E+001   2.763387000000E+001   2.624283000000E+001   2.493080000000E+001   2.369502000000E+001   2.253086000000E+001   2.143302000000E+001   2.039609000000E+001 
        1.941492000000E+001 
        1.970668000000E+001   2.072694000000E+001   2.181103000000E+001   2.296636000000E+001   2.420133000000E+001   2.552544000000E+001   2.694891000000E+001   2.848224000000E+001   3.013458000000E+001   3.191030000000E+001 
        3.380162000000E+001   3.577384000000E+001   3.773829000000E+001   3.951400000000E+001   4.080729000000E+001   4.128972000000E+001   4.080729000000E+001   3.951400000000E+001   3.773829000000E+001   3.577384000000E+001 
        3.380162000000E+001   3.191030000000E+001   3.013458000000E+001   2.848224000000E+001   2.694891000000E+001   2.552544000000E+001   2.420133000000E+001   2.296636000000E+001   2.181103000000E+001   2.072694000000E+001 
        1.970668000000E+001 
        1.994124000000E+001   2.099414000000E+001   2.211798000000E+001   2.332235000000E+001   2.461869000000E+001   2.602073000000E+001   2.754495000000E+001   2.921090000000E+001   3.104131000000E+001   3.306083000000E+001 
        3.529140000000E+001   3.773829000000E+001   4.035244000000E+001   4.294207000000E+001   4.502989000000E+001   4.586832000000E+001   4.502989000000E+001   4.294207000000E+001   4.035244000000E+001   3.773829000000E+001 
        3.529140000000E+001   3.306083000000E+001   3.104131000000E+001   2.921090000000E+001   2.754495000000E+001   2.602073000000E+001   2.461869000000E+001   2.332235000000E+001   2.211798000000E+001   2.099414000000E+001 
        1.994124000000E+001 
        2.011312000000E+001   2.119064000000E+001   2.234471000000E+001   2.358675000000E+001   2.493080000000E+001   2.639441000000E+001   2.799981000000E+001   2.977552000000E+001   3.175871000000E+001   3.399813000000E+001 
        3.655720000000E+001   3.951400000000E+001   4.294207000000E+001   4.680561000000E+001   5.054577000000E+001   5.232149000000E+001   5.054577000000E+001   4.680561000000E+001   4.294207000000E+001   3.951400000000E+001 
        3.655720000000E+001   3.399813000000E+001   3.175871000000E+001   2.977552000000E+001   2.799981000000E+001   2.639441000000E+001   2.493080000000E+001   2.358675000000E+001   2.234471000000E+001   2.119064000000E+001 
        2.011312000000E+001 
        2.021806000000E+001   2.131090000000E+001   2.248392000000E+001   2.374971000000E+001   2.512411000000E+001   2.662733000000E+001   2.828574000000E+001   3.013458000000E+001   3.222240000000E+001   3.461852000000E+001 
        3.742617000000E+001   4.080729000000E+001   4.502989000000E+001   5.054577000000E+001   5.783738000000E+001   6.335326000000E+001   5.783738000000E+001   5.054577000000E+001   4.502989000000E+001   4.080729000000E+001 
        3.742617000000E+001   3.461852000000E+001   3.222240000000E+001   3.013458000000E+001   2.828574000000E+001   2.662733000000E+001   2.512411000000E+001   2.374971000000E+001   2.248392000000E+001   2.131090000000E+001 
        2.021806000000E+001 
        2.025335000000E+001   2.135141000000E+001   2.253086000000E+001   2.380478000000E+001   2.518961000000E+001   2.670652000000E+001   2.838338000000E+001   3.025795000000E+001   3.238317000000E+001   3.483655000000E+001 
        3.773829000000E+001   4.128972000000E+001   4.586832000000E+001   5.232149000000E+001   6.335326000000E+001   1.000000000000E+002   6.335326000000E+001   5.232149000000E+001   4.586832000000E+001   4.128972000000E+001 
        3.773829000000E+001   3.483655000000E+001   3.238317000000E+001   3.025795000000E+001   2.838338000000E+001   2.670652000000E+001   2.518961000000E+001   2.380478000000E+001   2.253086000000E+001   2.135141000000E+001 
        2.025335000000E+001 
        2.021806000000E+001   2.131090000000E+001   2.248392000000E+001   2.374971000000E+001   2.512411000000E+001   2.662733000000E+001   2.828574000000E+001   3.013458000000E+001   3.222240000000E+001   3.461852000000E+001 
        3.742617000000E+001   4.080729000000E+001   4.502989000000E+001   5.054577000000E+001   5.783738000000E+001   6.335326000000E+001   5.783738000000E+001   5.054577000000E+001   4.502989000000E+001   4.080729000000E+001 
        3.742617000000E+001   3.461852000000E+001   3.222240000000E+001   3.013458000000E+001   2.828574000000E+001   2.662733000000E+001   2.512411000000E+001   2.374971000000E+001   2.248392000000E+001   2.131090000000E+001 
        2.021806000000E+001 
        2.011312000000E+001   2.119064000000E+001   2.234471000000E+001   2.358675000000E+001   2.493080000000E+001   2.639441000000E+001   2.799981000000E+001   2.977552000000E+001   3.175871000000E+001   3.399813000000E+001 
        3.655720000000E+001   3.951400000000E+001   4.294207000000E+001   4.680561000000E+001   5.054577000000E+001   5.232149000000E+001   5.054577000000E+001   4.680561000000E+001   4.294207000000E+001   3.951400000000E+001 
        3.655720000000E+001   3.399813000000E+001   3.175871000000E+001   2.977552000000E+001   2.799981000000E+001   2.639441000000E+001   2.493080000000E+001   2.358675000000E+001   2.234471000000E+001   2.119064000000E+001 
        2.011312000000E+001 
        1.994124000000E+001   2.099414000000E+001   2.211798000000E+001   2.332235000000E+001   2.461869000000E+001   2.602073000000E+001   2.754495000000E+001   2.921090000000E+001   3.104131000000E+001   3.306083000000E+001 
        3.529140000000E+001   3.773829000000E+001   4.035244000000E+001   4.294207000000E+001   4.502989000000E+001   4.586832000000E+001   4.502989000000E+001   4.294207000000E+001   4.035244000000E+001   3.773829000000E+001 
        3.529140000000E+001   3.306083000000E+001   3.104131000000E+001   2.921090000000E+001   2.754495000000E+001   2.602073000000E+001   2.461869000000E+001   2.332235000000E+001   2.211798000000E+001   2.099414000000E+001 
        1.994124000000E+001 
        1.970668000000E+001   2.072694000000E+001   2.181103000000E+001   2.296636000000E+001   2.420133000000E+001   2.552544000000E+001   2.694891000000E+001   2.848224000000E+001   3.013458000000E+001   3.191030000000E+001 
        3.380162000000E+001   3.577384000000E+001   3.773829000000E+001   3.951400000000E+001   4.080729000000E+001   4.128972000000E+001   4.080729000000E+001   3.951400000000E+001   3.773829000000E+001   3.577384000000E+001 
        3.380162000000E+001   3.191030000000E+001   3.013458000000E+001   2.848224000000E+001   2.694891000000E+001   2.552544000000E+001   2.420133000000E+001   2.296636000000E+001   2.181103000000E+001   2.072694000000E+001 
        1.970668000000E+001 
        1.941492000000E+001   2.039609000000E+001   2.143302000000E+001   2.253086000000E+001   2.369502000000E+001   2.493080000000E+001   2.624283000000E+001   2.763387000000E+001   2.910263000000E+001   3.064000000000E+001 
        3.222240000000E+001   3.380162000000E+001   3.529140000000E+001   3.655720000000E+001   3.742617000000E+001   3.773829000000E+001   3.742617000000E+001   3.655720000000E+001   3.529140000000E+001   3.380162000000E+001 
        3.222240000000E+001   3.064000000000E+001   2.910263000000E+001   2.763387000000E+001   2.624283000000E+001   2.493080000000E+001   2.369502000000E+001   2.253086000000E+001   2.143302000000E+001   2.039609000000E+001 
        1.941492000000E+001 
        1.907226000000E+001   2.000955000000E+001   2.099414000000E+001   2.202906000000E+001   2.311698000000E+001   2.425963000000E+001   2.545713000000E+001   2.670652000000E+001   2.799981000000E+001   2.932067000000E+001 
        3.064000000000E+001   3.191030000000E+001   3.306083000000E+001   3.399813000000E+001   3.461852000000E+001   3.483655000000E+001   3.461852000000E+001   3.399813000000E+001   3.306083000000E+001   3.191030000000E+001 
        3.064000000000E+001   2.932067000000E+001   2.799981000000E+001   2.670652000000E+001   2.545713000000E+001   2.425963000000E+001   2.311698000000E+001   2.202906000000E+001   2.099414000000E+001   2.000955000000E+001 
        1.907226000000E+001 
        1.868546000000E+001   1.957569000000E+001   2.050486000000E+001   2.147414000000E+001   2.248392000000E+001   2.353316000000E+001   2.461869000000E+001   2.573395000000E+001   2.686728000000E+001   2.799981000000E+001 
        2.910263000000E+001   3.013458000000E+001   3.104131000000E+001   3.175871000000E+001   3.222240000000E+001   3.238317000000E+001   3.222240000000E+001   3.175871000000E+001   3.104131000000E+001   3.013458000000E+001 
        2.910263000000E+001   2.799981000000E+001   2.686728000000E+001   2.573395000000E+001   2.461869000000E+001   2.353316000000E+001   2.248392000000E+001   2.147414000000E+001   2.050486000000E+001   1.957569000000E+001 
        1.868546000000E+001 
        1.826132000000E+001   1.910281000000E+001   1.997532000000E+001   2.087853000000E+001   2.181103000000E+001   2.276986000000E+001   2.374971000000E+001   2.474207000000E+001   2.573395000000E+001   2.670652000000E+001 
        2.763387000000E+001   2.848224000000E+001   2.921090000000E+001   2.977552000000E+001   3.013458000000E+001   3.025795000000E+001   3.013458000000E+001   2.977552000000E+001   2.921090000000E+001   2.848224000000E+001 
        2.763387000000E+001   2.670652000000E+001   2.573395000000E+001   2.474207000000E+001   2.374971000000E+001   2.276986000000E+001   2.181103000000E+001   2.087853000000E+001   1.997532000000E+001   1.910281000000E+001 
        1.826132000000E+001 
        1.780647000000E+001   1.859879000000E+001   1.941492000000E+001   2.025335000000E+001   2.111145000000E+001   2.198498000000E+001   2.286750000000E+001   2.374971000000E+001   2.461869000000E+001   2.545713000000E+001 
        2.624283000000E+001   2.694891000000E+001   2.754495000000E+001   2.799981000000E+001   2.828574000000E+001   2.838338000000E+001   2.828574000000E+001   2.799981000000E+001   2.754495000000E+001   2.694891000000E+001 
        2.624283000000E+001   2.545713000000E+001   2.461869000000E+001   2.374971000000E+001   2.286750000000E+001   2.198498000000E+001   2.111145000000E+001   2.025335000000E+001   1.941492000000E+001   1.859879000000E+001 
        1.780647000000E+001 
        1.732709000000E+001   1.807087000000E+001   1.883201000000E+001   1.960823000000E+001   2.039609000000E+001   2.119064000000E+001   2.198498000000E+001   2.276986000000E+001   2.353316000000E+001   2.425963000000E+001 
        2.493080000000E+001   2.552544000000E+001   2.602073000000E+001   2.639441000000E+001   2.662733000000E+001   2.670652000000E+001   2.662733000000E+001   2.639441000000E+001   2.602073000000E+001   2.552544000000E+001 
        2.493080000000E+001   2.425963000000E+001   2.353316000000E+001   2.276986000000E+001   2.198498000000E+001   2.119064000000E+001   2.039609000000E+001   1.960823000000E+001   1.883201000000E+001   1.807087000000E+001 
        1.732709000000E+001 
        1.682883000000E+001   1.752542000000E+001   1.823383000000E+001   1.895122000000E+001   1.967373000000E+001   2.039609000000E+001   2.111145000000E+001   2.181103000000E+001   2.248392000000E+001   2.311698000000E+001 
        2.369502000000E+001   2.420133000000E+001   2.461869000000E+001   2.493080000000E+001   2.512411000000E+001   2.518961000000E+001   2.512411000000E+001   2.493080000000E+001   2.461869000000E+001   2.420133000000E+001 
        2.369502000000E+001   2.311698000000E+001   2.248392000000E+001   2.181103000000E+001   2.111145000000E+001   2.039609000000E+001   1.967373000000E+001   1.895122000000E+001   1.823383000000E+001   1.752542000000E+001 
        1.682883000000E+001 
        1.631668000000E+001   1.696804000000E+001   1.762648000000E+001   1.828891000000E+001   1.895122000000E+001   1.960823000000E+001   2.025335000000E+001   2.087853000000E+001   2.147414000000E+001   2.202906000000E+001 
        2.253086000000E+001   2.296636000000E+001   2.332235000000E+001   2.358675000000E+001   2.374971000000E+001   2.380478000000E+001   2.374971000000E+001   2.358675000000E+001   2.332235000000E+001   2.296636000000E+001 
        2.253086000000E+001   2.202906000000E+001   2.147414000000E+001   2.087853000000E+001   2.025335000000E+001   1.960823000000E+001   1.895122000000E+001   1.828891000000E+001   1.762648000000E+001   1.696804000000E+001 
        1.631668000000E+001 
        1.579502000000E+001   1.640341000000E+001   1.701498000000E+001   1.762648000000E+001   1.823383000000E+001   1.883201000000E+001   1.941492000000E+001   1.997532000000E+001   2.050486000000E+001   2.099414000000E+001 
        2.143302000000E+001   2.181103000000E+001   2.211798000000E+001   2.234471000000E+001   2.248392000000E+001   2.253086000000E+001   2.248392000000E+001   2.234471000000E+001   2.211798000000E+001   2.181103000000E+001 
        2.143302000000E+001   2.099414000000E+001   2.050486000000E+001   1.997532000000E+001   1.941492000000E+001   1.883201000000E+001   1.823383000000E+001   1.762648000000E+001   1.701498000000E+001   1.640341000000E+001 
        1.579502000000E+001 
        1.526757000000E+001   1.583552000000E+001   1.640341000000E+001   1.696804000000E+001   1.752542000000E+001   1.807087000000E+001   1.859879000000E+001   1.910281000000E+001   1.957569000000E+001   2.000955000000E+001 
        2.039609000000E+001   2.072694000000E+001   2.099414000000E+001   2.119064000000E+001   2.131090000000E+001   2.135141000000E+001   2.131090000000E+001   2.119064000000E+001   2.099414000000E+001   2.072694000000E+001 
        2.039609000000E+001   2.000955000000E+001   1.957569000000E+001   1.910281000000E+001   1.859879000000E+001   1.807087000000E+001   1.752542000000E+001   1.696804000000E+001   1.640341000000E+001   1.583552000000E+001 
        1.526757000000E+001 
        1.473746000000E+001   1.526757000000E+001   1.579502000000E+001   1.631668000000E+001   1.682883000000E+001   1.732709000000E+001   1.780647000000E+001   1.826132000000E+001   1.868546000000E+001   1.907226000000E+001 
        1.941492000000E+001   1.970668000000E+001   1.994124000000E+001   2.011312000000E+001   2.021806000000E+001   2.025335000000E+001   2.021806000000E+001   2.011312000000E+001   1.994124000000E+001   1.970668000000E+001 
        1.941492000000E+001   1.907226000000E+001   1.868546000000E+001   1.826132000000E+001   1.780647000000E+001   1.732709000000E+001   1.682883000000E+001   1.631668000000E+001   1.579502000000E+001   1.526757000000E+001 
        1.473746000000E+001 
END GRIDDATA

