# Test model that makes use of altwtsorb
# MT3D-USGS Model      
DRYCELL FTLPRINT NOWETDRYPRINT OMITDRYCELLBUDGET ALTWTSORB
         2         1         1         2         1         1
D   FT  LB  
 T F T F T
 1 1 1 1 1 1 1 1 1 1
         0    10.000(10E12.4)                   -1     DELTA-X or C
         0    10.000(10E12.4)                   -1     DELTA-Y or R
       100     1.000(10E12.4)                   -1     TOP OF MODEL
  2.0000e+01  2.0000e+01  2.0000e+01  2.0000e+01  2.0000e+01  2.0000e+01
         0    10.000(10E12.4)                   -1     DELZ Layer   1
         0    10.000(10E12.4)                   -1     DELZ Layer   2
         0       0.1(10E12.4)                   -1     POROSITY Layer   1
         0       0.1(10E12.4)                   -1     POROSITY Layer   2
         0         1(25I3)                       0     ICBUND Layer   1
         0         1(25I3)                       0     ICBUND Layer   2
       000     000.0(10E12.4)                   -1     INITIAL CONCENTRATION Layer   1
       000     100.0(10E12.4)                   -1     INITIAL CONCENTRATION Layer   2
-1.000e+00 5.000e-04
         1         0         0         0         T         F
        -1
         1         1
         2         1         1
         T        10
2.0000e+00         4 1.000e+00
0.5000e-00     30000 1.000e+00 2.0000e-00
2.0000e+00         4 1.000e+00
0.5000e-00     30000 1.000e+00 2.0000e-00
2.0000e+00         4 1.000e+00
0.5000e-00     30000 1.000e+00 0.5000e-00
2.0000e+00         4 1.000e+00
0.5000e-00     30000 1.000e+00 0.5000e-00
2.0000e+00         4 1.000e+00
0.5000e-00     30000 1.000e+00 2.0000e-00
