# MODFLOW-NWT - Link-MT3D-USGS Package Input File
OUTPUT_FILE_NAME altstor.ftl
OUTPUT_FILE_UNIT 12
OUTPUT_FILE_HEADER Extended
OUTPUT_FILE_FORMAT Unformatted
