# UZF-MT3DMS LINKER FILE
#
OUTPUT_FILE_NAME uzsflk.ftl
OUTPUT_FILE_UNIT
OUTPUT_FILE_HEADER extended
OUTPUT_FILE_FORMAT formatted
PACKAGE_FLOWS UZF SFR LAK
