#Example model for testing MT3D accuracy with UZF, SFR, and LAK packages active.
#4/22/13

CONSTANT  0                 #Layer 1
INTERNAL  1    (FREE)  1    #Layer 2
1   1   1   1   1
1   1   1   1   1
1   1   1   1   1
1   1   1   1   1
1   1   1   1   1
1   1   1   1   1
1   1   1   1   1
1   1   1   1   1
1   1   1   1   1
1   1   1   1   1
1   1   1   1   1
1   1   1   1   1
1   1   1   1   1
1   1   1   1   1
1   1   1   1   1
1   1   1   1   1
1   1   1   1   1
1   1   1   1   1
1   1   1   1   1
1   1   1   1   1
1   1   1   1   1
1   1   1   1   1
1   1   1   1   1
1   1   1   1   1
1   1   1   1   1
INTERNAL  1    (FREE)  1    #Layer 3
1   1   1   1   1
1   1   1   1   1
1   1   1   1   1
1   1   1   1   1
1   1   1   1   1
1   1   1   1   1
1   1   1   1   1
1   1   1   1   1
1   1   1   1   1
1   1   1   1   1
1   1   1   1   1
1   1   1   1   1
1   1   1   1   1
1   1   1   1   1
1   1   1   1   1
1   1   1   1   1
1   1   1   1   1
1   1   1   1   1
1   1   1   1   1
1   1   1   1   1
1   1   1   1   1
1   1   1   1   1
1   1   1   1   1
1   1   1   1   1
1   1   1   1   1
-999                        #HNOFLO
INTERNAL  1    (FREE)  1    #Starting Head layer 1
134   134   134   134   134
134   114   114   114   114
134   114    94    99    99
134   114    99    93    96
134   114    99    96    92
134   114    99    96    91
114   109    96    90    96
106    99    89    95    98
 98    89    88    90    94
 90    88    87    89    90
 89    89    86    88    90
 87    86    85    86    87
 90    89    84    88    89
 89    86    83    86    89
 88    85    82    85    88
 87    84    81    84    87
 86    83    80    83    86
 85    82    79    82    85
 84    81    78    81    84
 83    80    77    80    83
 80    78    74    78    80
 78    71    69    70    78
 78    67    64    66    78
 78    62    59    61    78
 78    78    58    78    78
INTERNAL  1    (FREE)  1    #Starting Head layer 2
134   134   134   134   134
134   114   114   114   114
134   114    94    99    99
134   114    99    93    96
134   114    99    96    92
134   114    99    96    91
114   109    96    90    96
106    99    89    95    98
 98    89    88    90    94
 90    88    87    89    90
 89    89    86    88    90
 87    86    85    86    87
 90    89    84    88    89
 89    86    83    86    89
 88    85    82    85    88
 87    84    81    84    87
 86    83    80    83    86
 85    82    79    82    85
 84    81    78    81    84
 83    80    77    80    83
 80    78    74    78    80
 78    71    69    70    78
 78    67    64    66    78
 78    62    59    61    78
 78    78    58    78    78
INTERNAL  1    (FREE)  1    #Starting Head layer 3
134   134   134   134   134
134   114   114   114   114
134   114    94    99    99
134   114    99    93    96
134   114    99    96    92
134   114    99    96    91
114   109    96    90    96
106    99    89    95    98
 98    89    88    90    94
 90    88    87    89    90
 89    89    86    88    90
 87    86    85    86    87
 90    89    84    88    89
 89    86    83    86    89
 88    85    82    85    88
 87    84    81    84    87
 86    83    80    83    86
 85    82    79    82    85
 84    81    78    81    84
 83    80    77    80    83
 80    78    74    78    80
 78    71    69    70    78
 78    67    64    66    78
 78    62    59    61    78
 78    78    58    78    78
