#
# MT3DMS v5 Name file for 3-D test case with UZF/SFR/LAK
#
# Standard output file
LIST  0 uzsflk.m3d
# Transport package input files
BTN   0 uzsflk.btn
ADV   0 uzsflk.adv
DSP   0 uzsflk.dsp
SSM   0 uzsflk.ssm
GCG   0 uzsflk.gcg
# UZF File containing RCH and ET options
UZT   0 uzsflk.uzt
LKT   0 uzsflk.lkt
SFT   0 uzsflk.sft
# Flow-Transport Link input file
FTL   0 uzsflk.ftl 'FREE'
# Uncomment the following lines to override
# the default names of optional MT3DMS output files
# mt3d001.ucn, mt3d001s.ucn, mt3d001.obs, mt3d001.mas, mt3d.cnf.
# The unit numbers for these files are preset in the
# MT3D-USGS code.
DATA        44 uzsflk.dat
DATA       401 uzsflk.obs
DATA        17 uzsflk.cnf
DATA        81 uzsflk.rch.by.rch
DATA        82 uzsflk.sobs
