#2D Test Model for UZF-MT3D
#Model for comparison with CATHY
         3        25         5       366         1         1          #A3 - NLAY,NROW,NCOL,NPER,NCOMP,MCOMP
 day   m   g                                                          #A4 - TUNIT,LUNIT,MUNIT
 T T T F T F F F F F                                                  #A5 - ADV,DSP,SSM,RCT,GCG,XXX,XXX,XXX,XXX,XXX
 1 1 1                                                                #A6 - LAYCON(NLAY)
         0 1.000E+02                                                  #A7 - DELR
         0 1.000E+02                                                  #A8 - DELR
       100  1.00E+00             (5f7.2)         1                    #A9 - HTOP
 140.00 140.00 140.00 140.00 140.00
 140.00 120.00 120.00 120.00 120.00
 140.00 120.00 100.00 105.00 105.00
 140.00 120.00 105.00  99.00 102.00
 140.00 120.00 105.00 102.00  98.00
 140.00 120.00 105.00 102.00  97.00
 120.00 115.00 102.00  96.00 102.00
 112.00 105.00  95.00 101.00 104.00
 104.00  95.00  94.00  96.00 100.00
  96.00  94.00  93.00  95.00  96.00
  95.00  95.00  92.00  94.00  96.00
  93.00  92.00  91.00  92.00  93.00
  96.00  95.00  90.00  94.00  95.00
  95.00  92.00  89.00  92.00  95.00
  94.00  91.00  88.00  91.00  94.00
  93.00  90.00  87.00  90.00  93.00
  92.00  89.00  86.00  89.00  92.00
  91.00  88.00  85.00  88.00  91.00
  90.00  87.00  84.00  87.00  90.00
  89.00  86.00  83.00  86.00  89.00
  86.00  84.00  80.10  84.00  86.00
  84.00  80.10  80.10  80.10  84.00
  84.00  80.10  80.10  80.10  84.00
  84.00  80.10  80.10  80.10  84.00
  84.00  84.00  64.00  84.00  84.00
       100  1.00E+00            (5f7.2)         1                    #A10 - DZ (lay 1)
   0.00   0.00   0.00   0.00   0.00
   0.00   0.00   0.00   0.00   0.00
   0.00   0.00   0.00   0.00   0.00
   0.00   0.00   0.00   0.00   0.00
   0.00   0.00   0.00   0.00   0.00
   0.00   0.00   0.00   0.00   0.00
   0.00   0.00   0.00   0.00   0.00
   0.00   0.00   0.00   0.00   0.00
   0.00   0.00   0.00   0.00   0.00
   0.00   0.00   0.00   0.00   0.00
   0.00   0.00   0.00   0.00   0.00
   0.00   0.00   0.00   0.00   0.00
   0.00   0.00   0.00   0.00   0.00
   0.00   0.00   0.00   0.00   0.00
   0.00   0.00   0.00   0.00   0.00
   0.00   0.00   0.00   0.00   0.00
   0.00   0.00   0.00   0.00   0.00
   0.00   0.00   0.00   0.00   0.00
   0.00   0.00   0.00   0.00   0.00
   0.00   0.00   0.00   0.00   0.00
   0.00   0.00   0.10   0.00   0.00
   0.00   3.10   5.10   4.10   0.00
   0.00   7.10  10.10   8.10   0.00
   0.00  12.10  15.10  13.10   0.00
   0.00   0.00   0.00   0.00   0.00
       100  1.00E+00            (5f7.2)         1                    #A10 - DZ (lay 2)
  10.00  10.00  10.00  10.00  10.00
  10.00   8.00   8.00   8.00   8.00
  10.00   8.00   5.00   5.00   5.00
  10.00   8.00   5.00   5.00   5.00
  10.00   8.00   5.00   5.00   5.00
  10.00   8.00   5.00   5.00   5.00
  10.00   8.00   8.00   5.00   5.00
  10.00  10.00   8.00   8.00   8.00
  10.00  10.00   8.00  10.00  10.00
  10.00  10.00  10.00  10.00  10.00
  10.00  10.00  10.00  10.00  10.00
  10.00  10.00  10.00  10.00  10.00
  10.00  10.00  10.00  10.00  10.00
  10.00  10.00  10.00  10.00  10.00
  10.00  10.00  10.00  10.00  10.00
  10.00  10.00  10.00  10.00  10.00
  10.00  10.00  10.00  10.00  10.00
  10.00  10.00  10.00  10.00  10.00
  10.00  10.00  10.00  10.00  10.00
  10.00  10.00  10.00  10.00  10.00
  10.00  10.00  10.00  10.00  10.00
  10.00  10.00  10.00  10.00  10.00
  10.00  10.00  10.00  10.00  10.00
  10.00  10.00  10.00  10.00  10.00
  10.00  30.00  20.00  30.00  10.00
       100  1.00E+00             (5f7.2)         1                    #A10 - DZ (lay 3)
   2.00   2.00   2.00   2.00   2.00
   2.00   2.00   2.00   2.00   2.00
   2.00   2.00   3.00   3.00   3.00
   2.00   2.00   3.00   2.00   3.00
   2.00   2.00   3.00   3.00   2.00
  10.00   6.00   3.00   3.00   2.00
   5.00   4.00   3.00   3.00   3.00
   3.00   3.00   3.00   3.00   3.00
   4.00   4.00   4.00   4.00   4.00
   5.00   5.00   5.00   5.00   5.00
   6.00   6.00   6.00   6.00   6.00
   7.00   7.00   7.00   7.00   7.00
   8.00   8.00   8.00   8.00   8.00
   9.00   9.00   9.00   9.00   9.00
  10.00  10.00  10.00  10.00  10.00
  10.00  10.00  10.00  10.00  10.00
  10.00  10.00  10.00  10.00  10.00
  10.00  10.00  10.00  10.00  10.00
  10.00  10.00  10.00  10.00  10.00
  10.00  10.00  10.00  10.00  10.00
  10.00  10.00  10.00  10.00  10.00
  10.00  10.00  10.00  10.00  10.00
  10.00  10.00  10.00  10.00  10.00
  10.00  10.00  10.00  10.00  10.00
  10.00  10.00  10.00  10.00  10.00
         0  0.30                                                      #A11 - PRSITY (lay 1)
         0  0.30                                                      #A11 - PRSITY (lay 2)
         0  0.30                                                      #A11 - PRSITY (lay 3)
         0  0                                                         #A14 - ICBUND (lay 1)
         0  1                                                         #A14 - ICBUND (lay 2)
         0  1                                                         #A14 - ICBUND (lay 3)
         0  0.0                                                       #A15 - SCONC (lay 1)
         0  0.0                                                       #A15 - SCONC (lay 2)
         0  0.0                                                       #A15 - SCONC (lay 3)
      -999     -0.20                                                  #A16 - CINACT,THKMIN
        12         0         0         0         T                    #A17 - IFMTCN,IFMTNP,IFMTRF,IFMTDP,SAVUCN
        -1                                                            #A18 - NPRS (>0 skip TIMPRS)
        12         1                                                  #A20 - NOBS,NPROBS (skip KOBS,IOBS,JOBS)          
         2         3         3                                        #A21 - KOBS,IOBS,JOBS
         2         4         3                                        #A21 - KOBS,IOBS,JOBS
         2         5         5                                        #A21 - KOBS,IOBS,JOBS
         2         9         2                                        #A21 - KOBS,IOBS,JOBS
         2        12         2                                        #A21 - KOBS,IOBS,JOBS
         2        12         4                                        #A21 - KOBS,IOBS,JOBS
         2        15         2                                        #A21 - KOBS,IOBS,JOBS
         2        18         2                                        #A21 - KOBS,IOBS,JOBS
         2        22         1                                        #A21 - KOBS,IOBS,JOBS
         2        20         4                                        #A21 - KOBS,IOBS,JOBS
         2        23         3                                        #A21 - KOBS,IOBS,JOBS
         2        25         2                                        #A21 - KOBS,IOBS,JOBS
         T         1                                                  #A22 - CHKMAS,NPRMAS
         1         1      1.00     SSTATE                             #A23 - PERLEN,NSTP,TSMULT          Steady State
       1.0       100     1.000     0.000                              #A25 - DT0,MXSTRN,TTSMULT,TTSMAX   Steady State
         1         1      1.00                                        #A23 - PERLEN,NSTP,TSMULT          SP-1
       1.0       100     1.000     0.000                              #A25 - DT0,MXSTRN,TTSMULT,TTSMAX   SP-1
         1         1      1.00                                        #A23 - PERLEN,NSTP,TSMULT          SP-2
       1.0       100     1.000     0.000                              #A25 - DT0,MXSTRN,TTSMULT,TTSMAX   SP-2
         1         1      1.00                                        #A23 - PERLEN,NSTP,TSMULT          SP-3
       1.0       100     1.000     0.000                              #A25 - DT0,MXSTRN,TTSMULT,TTSMAX   SP-3
         1         1      1.00                                        #A23 - PERLEN,NSTP,TSMULT          SP-4
       1.0       100     1.000     0.000                              #A25 - DT0,MXSTRN,TTSMULT,TTSMAX   SP-4
         1         1      1.00                                        #A23 - PERLEN,NSTP,TSMULT          SP-5
       1.0       100     1.000     0.000                              #A25 - DT0,MXSTRN,TTSMULT,TTSMAX   SP-5
         1         1      1.00                                        #A23 - PERLEN,NSTP,TSMULT          SP-6
       1.0       100     1.000     0.000                              #A25 - DT0,MXSTRN,TTSMULT,TTSMAX   SP-6
         1         1      1.00                                        #A23 - PERLEN,NSTP,TSMULT          SP-7
       1.0       100     1.000     0.000                              #A25 - DT0,MXSTRN,TTSMULT,TTSMAX   SP-7
         1         1      1.00                                        #A23 - PERLEN,NSTP,TSMULT          SP-8
       1.0       100     1.000     0.000                              #A25 - DT0,MXSTRN,TTSMULT,TTSMAX   SP-8
         1         1      1.00                                        #A23 - PERLEN,NSTP,TSMULT          SP-9
       1.0       100     1.000     0.000                              #A25 - DT0,MXSTRN,TTSMULT,TTSMAX   SP-9
         1         1      1.00                                        #A23 - PERLEN,NSTP,TSMULT          SP-10
       1.0       100     1.000     0.000                              #A25 - DT0,MXSTRN,TTSMULT,TTSMAX   SP-10
         1         1      1.00                                        #A23 - PERLEN,NSTP,TSMULT          SP-11
       1.0       100     1.000     0.000                              #A25 - DT0,MXSTRN,TTSMULT,TTSMAX   SP-11
         1         1      1.00                                        #A23 - PERLEN,NSTP,TSMULT          SP-12
       1.0       100     1.000     0.000                              #A25 - DT0,MXSTRN,TTSMULT,TTSMAX   SP-12
         1         1      1.00                                        #A23 - PERLEN,NSTP,TSMULT          SP-13
       1.0       100     1.000     0.000                              #A25 - DT0,MXSTRN,TTSMULT,TTSMAX   SP-13
         1         1      1.00                                        #A23 - PERLEN,NSTP,TSMULT          SP-14
       1.0       100     1.000     0.000                              #A25 - DT0,MXSTRN,TTSMULT,TTSMAX   SP-14
         1         1      1.00                                        #A23 - PERLEN,NSTP,TSMULT          SP-15
       1.0       100     1.000     0.000                              #A25 - DT0,MXSTRN,TTSMULT,TTSMAX   SP-15
         1         1      1.00                                        #A23 - PERLEN,NSTP,TSMULT          SP-16
       1.0       100     1.000     0.000                              #A25 - DT0,MXSTRN,TTSMULT,TTSMAX   SP-16
         1         1      1.00                                        #A23 - PERLEN,NSTP,TSMULT          SP-17
       1.0       100     1.000     0.000                              #A25 - DT0,MXSTRN,TTSMULT,TTSMAX   SP-17
         1         1      1.00                                        #A23 - PERLEN,NSTP,TSMULT          SP-18
       1.0       100     1.000     0.000                              #A25 - DT0,MXSTRN,TTSMULT,TTSMAX   SP-18
         1         1      1.00                                        #A23 - PERLEN,NSTP,TSMULT          SP-19
       1.0       100     1.000     0.000                              #A25 - DT0,MXSTRN,TTSMULT,TTSMAX   SP-19
         1         1      1.00                                        #A23 - PERLEN,NSTP,TSMULT          SP-20
       1.0       100     1.000     0.000                              #A25 - DT0,MXSTRN,TTSMULT,TTSMAX   SP-20
         1         1      1.00                                        #A23 - PERLEN,NSTP,TSMULT          SP-21
       1.0       100     1.000     0.000                              #A25 - DT0,MXSTRN,TTSMULT,TTSMAX   SP-21
         1         1      1.00                                        #A23 - PERLEN,NSTP,TSMULT          SP-22
       1.0       100     1.000     0.000                              #A25 - DT0,MXSTRN,TTSMULT,TTSMAX   SP-22
         1         1      1.00                                        #A23 - PERLEN,NSTP,TSMULT          SP-23
       1.0       100     1.000     0.000                              #A25 - DT0,MXSTRN,TTSMULT,TTSMAX   SP-23
         1         1      1.00                                        #A23 - PERLEN,NSTP,TSMULT          SP-24
       1.0       100     1.000     0.000                              #A25 - DT0,MXSTRN,TTSMULT,TTSMAX   SP-24
         1         1      1.00                                        #A23 - PERLEN,NSTP,TSMULT          SP-25
       1.0       100     1.000     0.000                              #A25 - DT0,MXSTRN,TTSMULT,TTSMAX   SP-25
         1         1      1.00                                        #A23 - PERLEN,NSTP,TSMULT          SP-26
       1.0       100     1.000     0.000                              #A25 - DT0,MXSTRN,TTSMULT,TTSMAX   SP-26
         1         1      1.00                                        #A23 - PERLEN,NSTP,TSMULT          SP-27
       1.0       100     1.000     0.000                              #A25 - DT0,MXSTRN,TTSMULT,TTSMAX   SP-27
         1         1      1.00                                        #A23 - PERLEN,NSTP,TSMULT          SP-28
       1.0       100     1.000     0.000                              #A25 - DT0,MXSTRN,TTSMULT,TTSMAX   SP-28
         1         1      1.00                                        #A23 - PERLEN,NSTP,TSMULT          SP-29
       1.0       100     1.000     0.000                              #A25 - DT0,MXSTRN,TTSMULT,TTSMAX   SP-29
         1         1      1.00                                        #A23 - PERLEN,NSTP,TSMULT          SP-30
       1.0       100     1.000     0.000                              #A25 - DT0,MXSTRN,TTSMULT,TTSMAX   SP-30
         1         1      1.00                                        #A23 - PERLEN,NSTP,TSMULT          SP-31
       1.0       100     1.000     0.000                              #A25 - DT0,MXSTRN,TTSMULT,TTSMAX   SP-31
         1         1      1.00                                        #A23 - PERLEN,NSTP,TSMULT          SP-32
       1.0       100     1.000     0.000                              #A25 - DT0,MXSTRN,TTSMULT,TTSMAX   SP-32
         1         1      1.00                                        #A23 - PERLEN,NSTP,TSMULT          SP-33
       1.0       100     1.000     0.000                              #A25 - DT0,MXSTRN,TTSMULT,TTSMAX   SP-33
         1         1      1.00                                        #A23 - PERLEN,NSTP,TSMULT          SP-34
       1.0       100     1.000     0.000                              #A25 - DT0,MXSTRN,TTSMULT,TTSMAX   SP-34
         1         1      1.00                                        #A23 - PERLEN,NSTP,TSMULT          SP-35
       1.0       100     1.000     0.000                              #A25 - DT0,MXSTRN,TTSMULT,TTSMAX   SP-35
         1         1      1.00                                        #A23 - PERLEN,NSTP,TSMULT          SP-36
       1.0       100     1.000     0.000                              #A25 - DT0,MXSTRN,TTSMULT,TTSMAX   SP-36
         1         1      1.00                                        #A23 - PERLEN,NSTP,TSMULT          SP-37
       1.0       100     1.000     0.000                              #A25 - DT0,MXSTRN,TTSMULT,TTSMAX   SP-37
         1         1      1.00                                        #A23 - PERLEN,NSTP,TSMULT          SP-38
       1.0       100     1.000     0.000                              #A25 - DT0,MXSTRN,TTSMULT,TTSMAX   SP-38
         1         1      1.00                                        #A23 - PERLEN,NSTP,TSMULT          SP-39
       1.0       100     1.000     0.000                              #A25 - DT0,MXSTRN,TTSMULT,TTSMAX   SP-39
         1         1      1.00                                        #A23 - PERLEN,NSTP,TSMULT          SP-40
       1.0       100     1.000     0.000                              #A25 - DT0,MXSTRN,TTSMULT,TTSMAX   SP-40
         1         1      1.00                                        #A23 - PERLEN,NSTP,TSMULT          SP-41
       1.0       100     1.000     0.000                              #A25 - DT0,MXSTRN,TTSMULT,TTSMAX   SP-41
         1         1      1.00                                        #A23 - PERLEN,NSTP,TSMULT          SP-42
       1.0       100     1.000     0.000                              #A25 - DT0,MXSTRN,TTSMULT,TTSMAX   SP-42
         1         1      1.00                                        #A23 - PERLEN,NSTP,TSMULT          SP-43
       1.0       100     1.000     0.000                              #A25 - DT0,MXSTRN,TTSMULT,TTSMAX   SP-43
         1         1      1.00                                        #A23 - PERLEN,NSTP,TSMULT          SP-44
       1.0       100     1.000     0.000                              #A25 - DT0,MXSTRN,TTSMULT,TTSMAX   SP-44
         1         1      1.00                                        #A23 - PERLEN,NSTP,TSMULT          SP-45
       1.0       100     1.000     0.000                              #A25 - DT0,MXSTRN,TTSMULT,TTSMAX   SP-45
         1         1      1.00                                        #A23 - PERLEN,NSTP,TSMULT          SP-46
       1.0       100     1.000     0.000                              #A25 - DT0,MXSTRN,TTSMULT,TTSMAX   SP-46
         1         1      1.00                                        #A23 - PERLEN,NSTP,TSMULT          SP-47
       1.0       100     1.000     0.000                              #A25 - DT0,MXSTRN,TTSMULT,TTSMAX   SP-47
         1         1      1.00                                        #A23 - PERLEN,NSTP,TSMULT          SP-48
       1.0       100     1.000     0.000                              #A25 - DT0,MXSTRN,TTSMULT,TTSMAX   SP-48
         1         1      1.00                                        #A23 - PERLEN,NSTP,TSMULT          SP-49
       1.0       100     1.000     0.000                              #A25 - DT0,MXSTRN,TTSMULT,TTSMAX   SP-49
         1         1      1.00                                        #A23 - PERLEN,NSTP,TSMULT          SP-50
       1.0       100     1.000     0.000                              #A25 - DT0,MXSTRN,TTSMULT,TTSMAX   SP-50
         1         1      1.00                                        #A23 - PERLEN,NSTP,TSMULT          SP-51
       1.0       100     1.000     0.000                              #A25 - DT0,MXSTRN,TTSMULT,TTSMAX   SP-51
         1         1      1.00                                        #A23 - PERLEN,NSTP,TSMULT          SP-52
       1.0       100     1.000     0.000                              #A25 - DT0,MXSTRN,TTSMULT,TTSMAX   SP-52
         1         1      1.00                                        #A23 - PERLEN,NSTP,TSMULT          SP-53
       1.0       100     1.000     0.000                              #A25 - DT0,MXSTRN,TTSMULT,TTSMAX   SP-53
         1         1      1.00                                        #A23 - PERLEN,NSTP,TSMULT          SP-54
       1.0       100     1.000     0.000                              #A25 - DT0,MXSTRN,TTSMULT,TTSMAX   SP-54
         1         1      1.00                                        #A23 - PERLEN,NSTP,TSMULT          SP-55
       1.0       100     1.000     0.000                              #A25 - DT0,MXSTRN,TTSMULT,TTSMAX   SP-55
         1         1      1.00                                        #A23 - PERLEN,NSTP,TSMULT          SP-56
       1.0       100     1.000     0.000                              #A25 - DT0,MXSTRN,TTSMULT,TTSMAX   SP-56
         1         1      1.00                                        #A23 - PERLEN,NSTP,TSMULT          SP-57
       1.0       100     1.000     0.000                              #A25 - DT0,MXSTRN,TTSMULT,TTSMAX   SP-57
         1         1      1.00                                        #A23 - PERLEN,NSTP,TSMULT          SP-58
       1.0       100     1.000     0.000                              #A25 - DT0,MXSTRN,TTSMULT,TTSMAX   SP-58
         1         1      1.00                                        #A23 - PERLEN,NSTP,TSMULT          SP-59
       1.0       100     1.000     0.000                              #A25 - DT0,MXSTRN,TTSMULT,TTSMAX   SP-59
         1         1      1.00                                        #A23 - PERLEN,NSTP,TSMULT          SP-60
       1.0       100     1.000     0.000                              #A25 - DT0,MXSTRN,TTSMULT,TTSMAX   SP-60
         1         1      1.00                                        #A23 - PERLEN,NSTP,TSMULT          SP-61
       1.0       100     1.000     0.000                              #A25 - DT0,MXSTRN,TTSMULT,TTSMAX   SP-61
         1         1      1.00                                        #A23 - PERLEN,NSTP,TSMULT          SP-62
       1.0       100     1.000     0.000                              #A25 - DT0,MXSTRN,TTSMULT,TTSMAX   SP-62
         1         1      1.00                                        #A23 - PERLEN,NSTP,TSMULT          SP-63
       1.0       100     1.000     0.000                              #A25 - DT0,MXSTRN,TTSMULT,TTSMAX   SP-63
         1         1      1.00                                        #A23 - PERLEN,NSTP,TSMULT          SP-64
       1.0       100     1.000     0.000                              #A25 - DT0,MXSTRN,TTSMULT,TTSMAX   SP-64
         1         1      1.00                                        #A23 - PERLEN,NSTP,TSMULT          SP-65
       1.0       100     1.000     0.000                              #A25 - DT0,MXSTRN,TTSMULT,TTSMAX   SP-65
         1         1      1.00                                        #A23 - PERLEN,NSTP,TSMULT          SP-66
       1.0       100     1.000     0.000                              #A25 - DT0,MXSTRN,TTSMULT,TTSMAX   SP-66
         1         1      1.00                                        #A23 - PERLEN,NSTP,TSMULT          SP-67
       1.0       100     1.000     0.000                              #A25 - DT0,MXSTRN,TTSMULT,TTSMAX   SP-67
         1         1      1.00                                        #A23 - PERLEN,NSTP,TSMULT          SP-68
       1.0       100     1.000     0.000                              #A25 - DT0,MXSTRN,TTSMULT,TTSMAX   SP-68
         1         1      1.00                                        #A23 - PERLEN,NSTP,TSMULT          SP-69
       1.0       100     1.000     0.000                              #A25 - DT0,MXSTRN,TTSMULT,TTSMAX   SP-69
         1         1      1.00                                        #A23 - PERLEN,NSTP,TSMULT          SP-70
       1.0       100     1.000     0.000                              #A25 - DT0,MXSTRN,TTSMULT,TTSMAX   SP-70
         1         1      1.00                                        #A23 - PERLEN,NSTP,TSMULT          SP-71
       1.0       100     1.000     0.000                              #A25 - DT0,MXSTRN,TTSMULT,TTSMAX   SP-71
         1         1      1.00                                        #A23 - PERLEN,NSTP,TSMULT          SP-72
       1.0       100     1.000     0.000                              #A25 - DT0,MXSTRN,TTSMULT,TTSMAX   SP-72
         1         1      1.00                                        #A23 - PERLEN,NSTP,TSMULT          SP-73
       1.0       100     1.000     0.000                              #A25 - DT0,MXSTRN,TTSMULT,TTSMAX   SP-73
         1         1      1.00                                        #A23 - PERLEN,NSTP,TSMULT          SP-74
       1.0       100     1.000     0.000                              #A25 - DT0,MXSTRN,TTSMULT,TTSMAX   SP-74
         1         1      1.00                                        #A23 - PERLEN,NSTP,TSMULT          SP-75
       1.0       100     1.000     0.000                              #A25 - DT0,MXSTRN,TTSMULT,TTSMAX   SP-75
         1         1      1.00                                        #A23 - PERLEN,NSTP,TSMULT          SP-76
       1.0       100     1.000     0.000                              #A25 - DT0,MXSTRN,TTSMULT,TTSMAX   SP-76
         1         1      1.00                                        #A23 - PERLEN,NSTP,TSMULT          SP-77
       1.0       100     1.000     0.000                              #A25 - DT0,MXSTRN,TTSMULT,TTSMAX   SP-77
         1         1      1.00                                        #A23 - PERLEN,NSTP,TSMULT          SP-78
       1.0       100     1.000     0.000                              #A25 - DT0,MXSTRN,TTSMULT,TTSMAX   SP-78
         1         1      1.00                                        #A23 - PERLEN,NSTP,TSMULT          SP-79
       1.0       100     1.000     0.000                              #A25 - DT0,MXSTRN,TTSMULT,TTSMAX   SP-79
         1         1      1.00                                        #A23 - PERLEN,NSTP,TSMULT          SP-80
       1.0       100     1.000     0.000                              #A25 - DT0,MXSTRN,TTSMULT,TTSMAX   SP-80
         1         1      1.00                                        #A23 - PERLEN,NSTP,TSMULT          SP-81
       1.0       100     1.000     0.000                              #A25 - DT0,MXSTRN,TTSMULT,TTSMAX   SP-81
         1         1      1.00                                        #A23 - PERLEN,NSTP,TSMULT          SP-82
       1.0       100     1.000     0.000                              #A25 - DT0,MXSTRN,TTSMULT,TTSMAX   SP-82
         1         1      1.00                                        #A23 - PERLEN,NSTP,TSMULT          SP-83
       1.0       100     1.000     0.000                              #A25 - DT0,MXSTRN,TTSMULT,TTSMAX   SP-83
         1         1      1.00                                        #A23 - PERLEN,NSTP,TSMULT          SP-84
       1.0       100     1.000     0.000                              #A25 - DT0,MXSTRN,TTSMULT,TTSMAX   SP-84
         1         1      1.00                                        #A23 - PERLEN,NSTP,TSMULT          SP-85
       1.0       100     1.000     0.000                              #A25 - DT0,MXSTRN,TTSMULT,TTSMAX   SP-85
         1         1      1.00                                        #A23 - PERLEN,NSTP,TSMULT          SP-86
       1.0       100     1.000     0.000                              #A25 - DT0,MXSTRN,TTSMULT,TTSMAX   SP-86
         1         1      1.00                                        #A23 - PERLEN,NSTP,TSMULT          SP-87
       1.0       100     1.000     0.000                              #A25 - DT0,MXSTRN,TTSMULT,TTSMAX   SP-87
         1         1      1.00                                        #A23 - PERLEN,NSTP,TSMULT          SP-88
       1.0       100     1.000     0.000                              #A25 - DT0,MXSTRN,TTSMULT,TTSMAX   SP-88
         1         1      1.00                                        #A23 - PERLEN,NSTP,TSMULT          SP-89
       1.0       100     1.000     0.000                              #A25 - DT0,MXSTRN,TTSMULT,TTSMAX   SP-89
         1         1      1.00                                        #A23 - PERLEN,NSTP,TSMULT          SP-90
       1.0       100     1.000     0.000                              #A25 - DT0,MXSTRN,TTSMULT,TTSMAX   SP-90
         1         1      1.00                                        #A23 - PERLEN,NSTP,TSMULT          SP-91
       1.0       100     1.000     0.000                              #A25 - DT0,MXSTRN,TTSMULT,TTSMAX   SP-91
         1         1      1.00                                        #A23 - PERLEN,NSTP,TSMULT          SP-92
       1.0       100     1.000     0.000                              #A25 - DT0,MXSTRN,TTSMULT,TTSMAX   SP-92
         1         1      1.00                                        #A23 - PERLEN,NSTP,TSMULT          SP-93
       1.0       100     1.000     0.000                              #A25 - DT0,MXSTRN,TTSMULT,TTSMAX   SP-93
         1         1      1.00                                        #A23 - PERLEN,NSTP,TSMULT          SP-94
       1.0       100     1.000     0.000                              #A25 - DT0,MXSTRN,TTSMULT,TTSMAX   SP-94
         1         1      1.00                                        #A23 - PERLEN,NSTP,TSMULT          SP-95
       1.0       100     1.000     0.000                              #A25 - DT0,MXSTRN,TTSMULT,TTSMAX   SP-95
         1         1      1.00                                        #A23 - PERLEN,NSTP,TSMULT          SP-96
       1.0       100     1.000     0.000                              #A25 - DT0,MXSTRN,TTSMULT,TTSMAX   SP-96
         1         1      1.00                                        #A23 - PERLEN,NSTP,TSMULT          SP-97
       1.0       100     1.000     0.000                              #A25 - DT0,MXSTRN,TTSMULT,TTSMAX   SP-97
         1         1      1.00                                        #A23 - PERLEN,NSTP,TSMULT          SP-98
       1.0       100     1.000     0.000                              #A25 - DT0,MXSTRN,TTSMULT,TTSMAX   SP-98
         1         1      1.00                                        #A23 - PERLEN,NSTP,TSMULT          SP-99
       1.0       100     1.000     0.000                              #A25 - DT0,MXSTRN,TTSMULT,TTSMAX   SP-99
         1         1      1.00                                        #A23 - PERLEN,NSTP,TSMULT          SP-100
       1.0       100     1.000     0.000                              #A25 - DT0,MXSTRN,TTSMULT,TTSMAX   SP-100
         1         1      1.00                                        #A23 - PERLEN,NSTP,TSMULT          SP-101
       1.0       100     1.000     0.000                              #A25 - DT0,MXSTRN,TTSMULT,TTSMAX   SP-101
         1         1      1.00                                        #A23 - PERLEN,NSTP,TSMULT          SP-102
       1.0       100     1.000     0.000                              #A25 - DT0,MXSTRN,TTSMULT,TTSMAX   SP-102
         1         1      1.00                                        #A23 - PERLEN,NSTP,TSMULT          SP-103