#Example model for testing MT3D accuracy with UZF, SFR, and LAK packages active.
#4/22/13
#NLAY NROW NCOL NPER ITMUNI LENUNI
    3   25    5  366      4      2  #(ITMUNI=4: Days; LENUNI=2: Meters)
    0    0    0                     #No confining bed
CONSTANT 100                        #DELR
CONSTANT 100                        #DELC
INTERNAL  1.0 (FREE) 1              #TOP Elev
140   140   140   140   140
140   120   120   120   120
140   120   100   105   105
140   120   105    99   102
140   120   105   102    98
140   120   105   102    97
120   115   102    96   102
112   105    95   101   104
104    95    94    96   100
96     94    93    95    96
95     95    92    94    96
93     92    91    92    93
96     95    90    94    95
95     92    89    92    95
94     91    88    91    94
93     90    87    90    93
92     89    86    89    92
91     88    85    88    91
90     87    84    87    90
89     86    83    86    89
86     84 80.10    84    86
84  80.10 80.10 80.10    84
84  80.10 80.10 80.10    84
84  80.10 80.10 80.10    84
84     84    64    84    84
INTERNAL  1.0 (FREE) 1              #Bom Elev Layer 1
140   140   140   140   140
140   120   120   120   120
140   120   100   105   105
140   120   105    99   102
140   120   105   102    98
140   120   105   102    97
120   115   102    96   102
112   105    95   101   104
104    95    94    96   100
96     94    93    95    96
95     95    92    94    96
93     92    91    92    93
96     95    90    94    95
95     92    89    92    95
94     91    88    91    94
93     90    87    90    93
92     89    86    89    92
91     88    85    88    91
90     87    84    87    90
89     86    83    86    89
86     84    80    84    86
84     77    75    76    84
84     73    70    72    84
84     68    65    67    84
84     84    64    84    84
INTERNAL  1.0  (FREE)  1          #BOTM Elev Layer 2
130   130   130   130   130
130   112   112   112   112
130   112    95   100   100
130   112   100    94    97 
130   112   100    97    93 
130   112   100    97    92 
110   107    94    91    97 
102    95    87    93    96 
 94    85    86    86    90 
 86    84    83    85    86 
 85    85    82    84    86 
 83    82    81    82    83 
 86    85    80    84    85 
 85    82    79    82    85 
 84    81    78    81    84 
 83    80    77    80    83 
 82    79    76    79    82 
 81    78    75    78    81 
 80    77    74    77    80 
 79    76    73    76    79 
 76    74    70    74    76 
 74    67    65    66    74 
 74    63    60    62    74 
 74    58    55    57    74 
 74    54    44    54    74
INTERNAL  1.0  (FREE)  1          #BOTM Elev Layer 3
128   128   128   128   128
128   110   110   110   110
128   110    92    97    97
128   110    97    92    94
128   110    97    94    91
120   106    97    94    90
105   103    91    88    94
 99    92    84    90    93
 90    81    82    82    86
 81    79    78    80    81
 79    79    76    78    80
 76    75    74    75    76
 78    77    72    76    77
 76    73    70    73    76
 74    71    68    71    74
 73    70    67    70    73
 72    69    66    69    72
 71    68    65    68    71
 70    67    64    67    70
 69    66    63    66    69
 66    64    60    64    66
 64    57    55    56    64
 64    53    50    52    64
 64    48    45    47    64
 64    44    34    44    64
 1  1  1.0  Ss                    #PERLEN NSTP TSMULT Ss/tr 
 1  1  1.0  Tr
 1  1  1.0  Tr
 1  1  1.0  Tr
 1  1  1.0  Tr
 1  1  1.0  Tr
 1  1  1.0  Tr
 1  1  1.0  Tr
 1  1  1.0  Tr
 1  1  1.0  Tr
 1  1  1.0  Tr
 1  1  1.0  Tr
 1  1  1.0  Tr
 1  1  1.0  Tr
 1  1  1.0  Tr
 1  1  1.0  Tr
 1  1  1.0  Tr
 1  1  1.0  Tr
 1  1  1.0  Tr
 1  1  1.0  Tr
 1  1  1.0  Tr
 1  1  1.0  Tr
 1  1  1.0  Tr
 1  1  1.0  Tr
 1  1  1.0  Tr
 1  1  1.0  Tr
 1  1  1.0  Tr
 1  1  1.0  Tr
 1  1  1.0  Tr
 1  1  1.0  Tr
 1  1  1.0  Tr
 1  1  1.0  Tr
 1  1  1.0  Tr
 1  1  1.0  Tr
 1  1  1.0  Tr
 1  1  1.0  Tr
 1  1  1.0  Tr
 1  1  1.0  Tr
 1  1  1.0  Tr
 1  1  1.0  Tr
 1  1  1.0  Tr
 1  1  1.0  Tr
 1  1  1.0  Tr
 1  1  1.0  Tr
 1  1  1.0  Tr
 1  1  1.0  Tr
 1  1  1.0  Tr
 1  1  1.0  Tr
 1  1  1.0  Tr
 1  1  1.0  Tr
 1  1  1.0  Tr
 1  1  1.0  Tr
 1  1  1.0  Tr
 1  1  1.0  Tr
 1  1  1.0  Tr
 1  1  1.0  Tr
 1  1  1.0  Tr
 1  1  1.0  Tr
 1  1  1.0  Tr
 1  1  1.0  Tr
 1  1  1.0  Tr
 1  1  1.0  Tr
 1  1  1.0  Tr
 1  1  1.0  Tr
 1  1  1.0  Tr
 1  1  1.0  Tr
 1  1  1.0  Tr
 1  1  1.0  Tr
 1  1  1.0  Tr
 1  1  1.0  Tr
 1  1  1.0  Tr
 1  1  1.0  Tr
 1  1  1.0  Tr
 1  1  1.0  Tr
 1  1  1.0  Tr
 1  1  1.0  Tr
 1  1  1.0  Tr
 1  1  1.0  Tr
 1  1  1.0  Tr
 1  1  1.0  Tr
 1  1  1.0  Tr
 1  1  1.0  Tr
 1  1  1.0  Tr
 1  1  1.0  Tr
 1  1  1.0  Tr
 1  1  1.0  Tr
 1  1  1.0  Tr
 1  1  1.0  Tr
 1  1  1.0  Tr
 1  1  1.0  Tr
 1  1  1.0  Tr
 1  1  1.0  Tr
 1  1  1.0  Tr
 1  1  1.0  Tr
 1  1  1.0  Tr
 1  1  1.0  Tr
 1  1  1.0  Tr
 1  1  1.0  Tr
 1  1  1.0  Tr
 1  1  1.0  Tr
 1  1  1.0  Tr
 1  1  1.0  Tr
 1  1  1.0  Tr
 1  1  1.0  Tr
 1  1  1.0  Tr
 1  1  1.0  Tr
 1  1  1.0  Tr
 1  1  1.0  Tr
 1  1  1.0  Tr
 1  1  1.0  Tr
 1  1  1.0  Tr
 1  1  1.0  Tr
 1  1  1.0  Tr
 1  1  1.0  Tr
 1  1  1.0  Tr
 1  1  1.0  Tr
 1  1  1.0  Tr
 1  1  1.0  Tr
 1  1  1.0  Tr
 1  1  1.0  Tr
 1  1  1.0  Tr
 1  1  1.0  Tr
 1  1  1.0  Tr
 1  1  1.0  Tr
 1  1  1.0  Tr
 1  1  1.0  Tr
 1  1  1.0  Tr
 1  1  1.0  Tr
 1  1  1.0  Tr
 1  1  1.0  Tr
 1  1  1.0  Tr
 1  1  1.0  Tr
 1  1  1.0  Tr
 1  1  1.0  Tr
 1  1  1.0  Tr
 1  1  1.0  Tr
 1  1  1.0  Tr
 1  1  1.0  Tr
 1  1  1.0  Tr
 1  1  1.0  Tr
 1  1  1.0  Tr
 1  1  1.0  Tr
 1  1  1.0  Tr
 1  1  1.0  Tr
 1  1  1.0  Tr
 1  1  1.0  Tr
 1  1  1.0  Tr
 1  1  1.0  Tr
 1  1  1.0  Tr
 1  1  1.0  Tr
 1  1  1.0  Tr
 1  1  1.0  Tr
 1  1  1.0  Tr
 1  1  1.0  Tr
 1  1  1.0  Tr
 1  1  1.0  Tr
 1  1  1.0  Tr
 1  1  1.0  Tr
 1  1  1.0  Tr
 1  1  1.0  Tr
 1  1  1.0  Tr
 1  1  1.0  Tr
 1  1  1.0  Tr
 1  1  1.0  Tr
 1  1  1.0  Tr
 1  1  1.0  Tr
 1  1  1.0  Tr
 1  1  1.0  Tr
 1  1  1.0  Tr
 1  1  1.0  Tr
 1  1  1.0  Tr
 1  1  1.0  Tr
 1  1  1.0  Tr
 1  1  1.0  Tr
 1  1  1.0  Tr
 1  1  1.0  Tr
 1  1  1.0  Tr
 1  1  1.0  Tr
 1  1  1.0  Tr
 1  1  1.0  Tr
 1  1  1.0  Tr
 1  1  1.0  Tr
 1  1  1.0  Tr
 1  1  1.0  Tr
 1  1  1.0  Tr
 1  1  1.0  Tr
 1  1  1.0  Tr
 1  1  1.0  Tr
 1  1  1.0  Tr
 1  1  1.0  Tr
 1  1  1.0  Tr
 1  1  1.0  Tr
 1  1  1.0  Tr
 1  1  1.0  Tr
 1  1  1.0  Tr
 1  1  1.0  Tr
 1  1  1.0  Tr
 1  1  1.0  Tr
 1  1  1.0  Tr
 1  1  1.0  Tr
 1  1  1.0  Tr
 1  1  1.0  Tr
 1  1  1.0  Tr
 1  1  1.0  Tr
 1  1  1.0  Tr
 1  1  1.0  Tr
 1  1  1.0  Tr
 1  1  1.0  Tr
 1  1  1.0  Tr
 1  1  1.0  Tr
 1  1  1.0  Tr
 1  1  1.0  Tr
 1  1  1.0  Tr
 1  1  1.0  Tr
 1  1  1.0  Tr
 1  1  1.0  Tr
 1  1  1.0  Tr
 1  1  1.0  Tr
 1  1  1.0  Tr
 1  1  1.0  Tr
 1  1  1.0  Tr
 1  1  1.0  Tr
 1  1  1.0  Tr
 1  1  1.0  Tr
 1  1  1.0  Tr
 1  1  1.0  Tr
 1  1  1.0  Tr
 1  1  1.0  Tr
 1  1  1.0  Tr
 1  1  1.0  Tr
 1  1  1.0  Tr
 1  1  1.0  Tr
 1  1  1.0  Tr
 1  1  1.0  Tr
 1  1  1.0  Tr
 1  1  1.0  Tr
 1  1  1.0  Tr
 1  1  1.0  Tr
 1  1  1.0  Tr
 1  1  1.0  Tr
 1  1  1.0  Tr
 1  1  1.0  Tr
 1  1  1.0  Tr
 1  1  1.0  Tr
 1  1  1.0  Tr
 1  1  1.0  Tr
 1  1  1.0  Tr
 1  1  1.0  Tr
 1  1  1.0  Tr
 1  1  1.0  Tr
 1  1  1.0  Tr
 1  1  1.0  Tr
 1  1  1.0  Tr
 1  1  1.0  Tr
 1  1  1.0  Tr
 1  1  1.0  Tr
 1  1  1.0  Tr
 1  1  1.0  Tr
 1  1  1.0  Tr
 1  1  1.0  Tr
 1  1  1.0  Tr
 1  1  1.0  Tr
 1  1  1.0  Tr
 1  1  1.0  Tr
 1  1  1.0  Tr
 1  1  1.0  Tr
 1  1  1.0  Tr
 1  1  1.0  Tr
 1  1  1.0  Tr
 1  1  1.0  Tr
 1  1  1.0  Tr
 1  1  1.0  Tr
 1  1  1.0  Tr
 1  1  1.0  Tr
 1  1  1.0  Tr
 1  1  1.0  Tr
 1  1  1.0  Tr
 1  1  1.0  Tr
 1  1  1.0  Tr
 1  1  1.0  Tr
 1  1  1.0  Tr
 1  1  1.0  Tr
 1  1  1.0  Tr
 1  1  1.0  Tr
 1  1  1.0  Tr
 1  1  1.0  Tr
 1  1  1.0  Tr
 1  1  1.0  Tr
 1  1  1.0  Tr
 1  1  1.0  Tr
 1  1  1.0  Tr
 1  1  1.0  Tr
 1  1  1.0  Tr
 1  1  1.0  Tr
 1  1  1.0  Tr
 1  1  1.0  Tr
 1  1  1.0  Tr
 1  1  1.0  Tr
 1  1  1.0  Tr
 1  1  1.0  Tr
 1  1  1.0  Tr
 1  1  1.0  Tr
 1  1  1.0  Tr
 1  1  1.0  Tr
 1  1  1.0  Tr
 1  1  1.0  Tr
 1  1  1.0  Tr
 1  1  1.0  Tr
 1  1  1.0  Tr
 1  1  1.0  Tr
 1  1  1.0  Tr
 1  1  1.0  Tr
 1  1  1.0  Tr
 1  1  1.0  Tr
 1  1  1.0  Tr
 1  1  1.0  Tr
 1  1  1.0  Tr
 1  1  1.0  Tr
 1  1  1.0  Tr
 1  1  1.0  Tr
 1  1  1.0  Tr
 1  1  1.0  Tr
 1  1  1.0  Tr
 1  1  1.0  Tr
 1  1  1.0  Tr
 1  1  1.0  Tr
 1  1  1.0  Tr
 1  1  1.0  Tr
 1  1  1.0  Tr
 1  1  1.0  Tr
 1  1  1.0  Tr
 1  1  1.0  Tr
 1  1  1.0  Tr
 1  1  1.0  Tr
 1  1  1.0  Tr
 1  1  1.0  Tr
 1  1  1.0  Tr
 1  1  1.0  Tr
 1  1  1.0  Tr
 1  1  1.0  Tr
 1  1  1.0  Tr
 1  1  1.0  Tr
 1  1  1.0  Tr
 1  1  1.0  Tr
 1  1  1.0  Tr
 1  1  1.0  Tr
 1  1  1.0  Tr
 1  1  1.0  Tr
 1  1  1.0  Tr
 1  1  1.0  Tr
 1  1  1.0  Tr
 1  1  1.0  Tr
 1  1  1.0  Tr
 1  1  1.0  Tr
 1  1  1.0  Tr
 1  1  1.0  Tr
 1  1  1.0  Tr
 1  1  1.0  Tr
 1  1  1.0  Tr
 1  1  1.0  Tr
 1  1  1.0  Tr
 1  1  1.0  Tr
 1  1  1.0  Tr
 1  1  1.0  Tr
 1  1  1.0  Tr
 1  1  1.0  Tr