# MODFLOW-NWT Well Package
PARAMETER  0  0
       192        50
       192         0               Stress Period 1
         1         1       169 0.2250000         0
         1         1       170 0.2250000         0
         1         1       171 0.2250000         0
         1         1       172 0.2250000         0
         1         1       173 0.2250000         0
         1         1       174 0.2250000         0
         1         1       175 0.2250000         0
         1         1       176 0.2250000         0
         1         1       177 0.2250000         0
         1         1       178 0.2250000         0
         1         1       179 0.2250000         0
         1         1       180 0.2250000         0
         1         1       181 0.2250000         0
         1         1       182 0.2250000         0
         1         1       183 0.2250000         0
         1         1       184 0.2250000         0
         1         1       185 0.2250000         0
         1         1       186 0.2250000         0
         1         1       187 0.2250000         0
         1         1       188 0.2250000         0
         1         1       189 0.2250000         0
         1         1       190 0.2250000         0
         1         1       191 0.2250000         0
         1         1       192 0.2250000         0
         2         1       169 0.2250000         0
         2         1       170 0.2250000         0
         2         1       171 0.2250000         0
         2         1       172 0.2250000         0
         2         1       173 0.2250000         0
         2         1       174 0.2250000         0
         2         1       175 0.2250000         0
         2         1       176 0.2250000         0
         2         1       177 0.2250000         0
         2         1       178 0.2250000         0
         2         1       179 0.2250000         0
         2         1       180 0.2250000         0
         2         1       181 0.2250000         0
         2         1       182 0.2250000         0
         2         1       183 0.2250000         0
         2         1       184 0.2250000         0
         2         1       185 0.2250000         0
         2         1       186 0.2250000         0
         2         1       187 0.2250000         0
         2         1       188 0.2250000         0
         2         1       189 0.2250000         0
         2         1       190 0.2250000         0
         2         1       191 0.2250000         0
         2         1       192 0.2250000         0
         3         1       169 0.2250000         0
         3         1       170 0.2250000         0
         3         1       171 0.2250000         0
         3         1       172 0.2250000         0
         3         1       173 0.2250000         0
         3         1       174 0.2250000         0
         3         1       175 0.2250000         0
         3         1       176 0.2250000         0
         3         1       177 0.2250000         0
         3         1       178 0.2250000         0
         3         1       179 0.2250000         0
         3         1       180 0.2250000         0
         3         1       181 0.2250000         0
         3         1       182 0.2250000         0
         3         1       183 0.2250000         0
         3         1       184 0.2250000         0
         3         1       185 0.2250000         0
         3         1       186 0.2250000         0
         3         1       187 0.2250000         0
         3         1       188 0.2250000         0
         3         1       189 0.2250000         0
         3         1       190 0.2250000         0
         3         1       191 0.2250000         0
         3         1       192 0.2250000         0
         4         1       169 0.2250000         0
         4         1       170 0.2250000         0
         4         1       171 0.2250000         0
         4         1       172 0.2250000         0
         4         1       173 0.2250000         0
         4         1       174 0.2250000         0
         4         1       175 0.2250000         0
         4         1       176 0.2250000         0
         4         1       177 0.2250000         0
         4         1       178 0.2250000         0
         4         1       179 0.2250000         0
         4         1       180 0.2250000         0
         4         1       181 0.2250000         0
         4         1       182 0.2250000         0
         4         1       183 0.2250000         0
         4         1       184 0.2250000         0
         4         1       185 0.2250000         0
         4         1       186 0.2250000         0
         4         1       187 0.2250000         0
         4         1       188 0.2250000         0
         4         1       189 0.2250000         0
         4         1       190 0.2250000         0
         4         1       191 0.2250000         0
         4         1       192 0.2250000         0
         5         1       169 0.2250000         0
         5         1       170 0.2250000         0
         5         1       171 0.2250000         0
         5         1       172 0.2250000         0
         5         1       173 0.2250000         0
         5         1       174 0.2250000         0
         5         1       175 0.2250000         0
         5         1       176 0.2250000         0
         5         1       177 0.2250000         0
         5         1       178 0.2250000         0
         5         1       179 0.2250000         0
         5         1       180 0.2250000         0
         5         1       181 0.2250000         0
         5         1       182 0.2250000         0
         5         1       183 0.2250000         0
         5         1       184 0.2250000         0
         5         1       185 0.2250000         0
         5         1       186 0.2250000         0
         5         1       187 0.2250000         0
         5         1       188 0.2250000         0
         5         1       189 0.2250000         0
         5         1       190 0.2250000         0
         5         1       191 0.2250000         0
         5         1       192 0.2250000         0
         6         1       169 0.2250000         0
         6         1       170 0.2250000         0
         6         1       171 0.2250000         0
         6         1       172 0.2250000         0
         6         1       173 0.2250000         0
         6         1       174 0.2250000         0
         6         1       175 0.2250000         0
         6         1       176 0.2250000         0
         6         1       177 0.2250000         0
         6         1       178 0.2250000         0
         6         1       179 0.2250000         0
         6         1       180 0.2250000         0
         6         1       181 0.2250000         0
         6         1       182 0.2250000         0
         6         1       183 0.2250000         0
         6         1       184 0.2250000         0
         6         1       185 0.2250000         0
         6         1       186 0.2250000         0
         6         1       187 0.2250000         0
         6         1       188 0.2250000         0
         6         1       189 0.2250000         0
         6         1       190 0.2250000         0
         6         1       191 0.2250000         0
         6         1       192 0.2250000         0
         7         1       169 0.2250000         0
         7         1       170 0.2250000         0
         7         1       171 0.2250000         0
         7         1       172 0.2250000         0
         7         1       173 0.2250000         0
         7         1       174 0.2250000         0
         7         1       175 0.2250000         0
         7         1       176 0.2250000         0
         7         1       177 0.2250000         0
         7         1       178 0.2250000         0
         7         1       179 0.2250000         0
         7         1       180 0.2250000         0
         7         1       181 0.2250000         0
         7         1       182 0.2250000         0
         7         1       183 0.2250000         0
         7         1       184 0.2250000         0
         7         1       185 0.2250000         0
         7         1       186 0.2250000         0
         7         1       187 0.2250000         0
         7         1       188 0.2250000         0
         7         1       189 0.2250000         0
         7         1       190 0.2250000         0
         7         1       191 0.2250000         0
         7         1       192 0.2250000         0
         8         1       169 0.2250000         0
         8         1       170 0.2250000         0
         8         1       171 0.2250000         0
         8         1       172 0.2250000         0
         8         1       173 0.2250000         0
         8         1       174 0.2250000         0
         8         1       175 0.2250000         0
         8         1       176 0.2250000         0
         8         1       177 0.2250000         0
         8         1       178 0.2250000         0
         8         1       179 0.2250000         0
         8         1       180 0.2250000         0
         8         1       181 0.2250000         0
         8         1       182 0.2250000         0
         8         1       183 0.2250000         0
         8         1       184 0.2250000         0
         8         1       185 0.2250000         0
         8         1       186 0.2250000         0
         8         1       187 0.2250000         0
         8         1       188 0.2250000         0
         8         1       189 0.2250000         0
         8         1       190 0.2250000         0
         8         1       191 0.2250000         0
         8         1       192 0.2250000         0
