# MODFLOW-NWT General Head Boundary Package
PARAMETER  0  0
        36        50
        36         0                      Stress Period 1
        49         1         1 800.00000 21.250000         0
        50         1         1 800.00000 21.250000         0
        51         1         1 800.00000 21.250000         0
        52         1         1 800.00000 21.250000         0
        53         1         1 800.00000 21.250000         0
        54         1         1 800.00000 21.250000         0
        55         1         1 800.00000 21.250000         0
        56         1         1 800.00000 21.250000         0
        57         1         1 800.00000 21.250000         0
        58         1         1 800.00000 21.250000         0
        59         1         1 800.00000 21.250000         0
        60         1         1 800.00000 21.250000         0
        61         1         1 800.00000 21.250000         0
        62         1         1 800.00000 21.250000         0
        63         1         1 800.00000 21.250000         0
        64         1         1 800.00000 21.250000         0
        65         1         1 800.00000 21.250000         0
        66         1         1 800.00000 21.250000         0
        67         1         1 800.00000 21.250000         0
        68         1         1 800.00000 21.250000         0
        69         1         1 800.00000 21.250000         0
        70         1         1 800.00000 21.250000         0
        71         1         1 800.00000 21.250000         0
        72         1         1 800.00000 21.250000         0
        73         1         1 800.00000 21.250000         0
        74         1         1 800.00000 21.250000         0
        75         1         1 800.00000 21.250000         0
        76         1         1 800.00000 21.250000         0
        77         1         1 800.00000 21.250000         0
        78         1         1 800.00000 21.250000         0
        79         1         1 800.00000 21.250000         0
        80         1         1 800.00000 21.250000         0
        77         1       400100.000000 21.250000         0
        78         1       400100.000000 21.250000         0
        79         1       400100.000000 21.250000         0
        80         1       400100.000000 21.250000         0
        -1         0                      Stress Period 2
        -1         0                      Stress Period 3
        