# Name File for MODFLOW created on 2/19/2019 by ModelMuse Version 3.10.0.42
BEGIN OPTIONS
  LIST         ImportMt3dmsMultidiffusion.lst
  PRINT_INPUT
  SAVE_FLOWS
END OPTIONS

BEGIN PACKAGES
  DIS6         ImportMt3dmsMultidiffusion.dis
  IC6          ImportMt3dmsMultidiffusion.ic
  NPF6         ImportMt3dmsMultidiffusion.npf
  OC6          ImportMt3dmsMultidiffusion.oc
  CHD6         ImportMt3dmsMultidiffusion.chd
  WEL6         ImportMt3dmsMultidiffusion.wel
END PACKAGES
