# 2D TEST PROBLEM
# Uniform Flow Field
# Initial Conditions Package file created on 2/19/2019 by ModelMuse version 3.10.0.42.
BEGIN OPTIONS
END OPTIONS

BEGIN GRIDDATA
  STRT LAYERED
    INTERNAL IPRN     12 # STRT Layer 1
        7.291606200000E-004  -9.926070300000E-002  -1.992517000000E-001  -2.992441000000E-001  -3.992384000000E-001  -4.992349000000E-001  -5.992342000000E-001  -6.992369000000E-001  -7.992434000000E-001  -8.992545000000E-001 
       -9.992709000000E-001  -1.099293000000E+000  -1.199321000000E+000  -1.299357000000E+000  -1.399399000000E+000  -1.499448000000E+000  -1.599505000000E+000  -1.699568000000E+000  -1.799638000000E+000  -1.899712000000E+000 
       -1.999791000000E+000  -2.099873000000E+000  -2.199958000000E+000  -2.300042000000E+000  -2.400126000000E+000  -2.500209000000E+000  -2.600288000000E+000  -2.700362000000E+000  -2.800432000000E+000  -2.900495000000E+000 
       -3.000552000000E+000  -3.100601000000E+000  -3.200643000000E+000  -3.300678000000E+000  -3.400707000000E+000  -3.500729000000E+000  -3.600745000000E+000  -3.700756000000E+000  -3.800763000000E+000  -3.900766000000E+000 
       -4.000765000000E+000  -4.100761000000E+000  -4.200756000000E+000  -4.300748000000E+000  -4.400739000000E+000  -4.500729000000E+000 
        7.613877000000E-004  -9.922584900000E-002  -1.992140000000E-001  -2.992035000000E-001  -3.991947000000E-001  -4.991882000000E-001  -5.991843000000E-001  -6.991839000000E-001  -7.991876000000E-001  -8.991962000000E-001 
       -9.992105000000E-001  -1.099231000000E+000  -1.199259000000E+000  -1.299295000000E+000  -1.399339000000E+000  -1.499392000000E+000  -1.599452000000E+000  -1.699521000000E+000  -1.799597000000E+000  -1.899680000000E+000 
       -1.999767000000E+000  -2.099859000000E+000  -2.199953000000E+000  -2.300047000000E+000  -2.400141000000E+000  -2.500232000000E+000  -2.600320000000E+000  -2.700403000000E+000  -2.800479000000E+000  -2.900548000000E+000 
       -3.000608000000E+000  -3.100661000000E+000  -3.200705000000E+000  -3.300741000000E+000  -3.400769000000E+000  -3.500789000000E+000  -3.600804000000E+000  -3.700812000000E+000  -3.800816000000E+000  -3.900815000000E+000 
       -4.000812000000E+000  -4.100805000000E+000  -4.200796000000E+000  -4.300786000000E+000  -4.400774000000E+000  -4.500762000000E+000 
        7.942841000000E-004  -9.919004900000E-002  -1.991751000000E-001  -2.991613000000E-001  -3.991489000000E-001  -4.991387000000E-001  -5.991310000000E-001  -6.991269000000E-001  -7.991269000000E-001  -8.991323000000E-001 
       -9.991437000000E-001  -1.099162000000E+000  -1.199189000000E+000  -1.299225000000E+000  -1.399271000000E+000  -1.499326000000E+000  -1.599392000000E+000  -1.699467000000E+000  -1.799551000000E+000  -1.899642000000E+000 
       -1.999740000000E+000  -2.099842000000E+000  -2.199947000000E+000  -2.300053000000E+000  -2.400158000000E+000  -2.500260000000E+000  -2.600358000000E+000  -2.700449000000E+000  -2.800533000000E+000  -2.900608000000E+000 
       -3.000674000000E+000  -3.100729000000E+000  -3.200775000000E+000  -3.300811000000E+000  -3.400837000000E+000  -3.500856000000E+000  -3.600868000000E+000  -3.700873000000E+000  -3.800873000000E+000  -3.900869000000E+000 
       -4.000861000000E+000  -4.100851000000E+000  -4.200839000000E+000  -4.300825000000E+000  -4.400810000000E+000  -4.500794000000E+000 
        8.276192200000E-004  -9.915353400000E-002  -1.991351000000E-001  -2.991175000000E-001  -3.991011000000E-001  -4.990865000000E-001  -5.990744000000E-001  -6.990656000000E-001  -7.990611000000E-001  -8.990620000000E-001 
       -9.990697000000E-001  -1.099085000000E+000  -1.199110000000E+000  -1.299146000000E+000  -1.399192000000E+000  -1.499251000000E+000  -1.599322000000E+000  -1.699404000000E+000  -1.799497000000E+000  -1.899598000000E+000 
       -1.999708000000E+000  -2.099822000000E+000  -2.199940000000E+000  -2.300060000000E+000  -2.400177000000E+000  -2.500292000000E+000  -2.600401000000E+000  -2.700503000000E+000  -2.800596000000E+000  -2.900678000000E+000 
       -3.000749000000E+000  -3.100807000000E+000  -3.200854000000E+000  -3.300890000000E+000  -3.400914000000E+000  -3.500930000000E+000  -3.600938000000E+000  -3.700939000000E+000  -3.800934000000E+000  -3.900925000000E+000 
       -4.000914000000E+000  -4.100899000000E+000  -4.200882000000E+000  -4.300865000000E+000  -4.400846000000E+000  -4.500828000000E+000 
        8.611060900000E-004  -9.911659400000E-002  -1.990944000000E-001  -2.990725000000E-001  -3.990515000000E-001  -4.990319000000E-001  -5.990144000000E-001  -6.990000000000E-001  -7.989898000000E-001  -8.989851000000E-001 
       -9.989877000000E-001  -1.098999000000E+000  -1.199021000000E+000  -1.299055000000E+000  -1.399102000000E+000  -1.499164000000E+000  -1.599240000000E+000  -1.699330000000E+000  -1.799433000000E+000  -1.899547000000E+000 
       -1.999670000000E+000  -2.099799000000E+000  -2.199933000000E+000  -2.300067000000E+000  -2.400200000000E+000  -2.500330000000E+000  -2.600453000000E+000  -2.700567000000E+000  -2.800670000000E+000  -2.900760000000E+000 
       -3.000836000000E+000  -3.100898000000E+000  -3.200945000000E+000  -3.300979000000E+000  -3.401001000000E+000  -3.501012000000E+000  -3.601015000000E+000  -3.701010000000E+000  -3.801000000000E+000  -3.900985000000E+000 
       -4.000968000000E+000  -4.100948000000E+000  -4.200927000000E+000  -4.300905000000E+000  -4.400884000000E+000  -4.500861000000E+000 
        8.943941200000E-004  -9.907961600000E-002  -1.990532000000E-001  -2.990267000000E-001  -3.990005000000E-001  -4.989752000000E-001  -5.989514000000E-001  -6.989303000000E-001  -7.989129000000E-001  -8.989012000000E-001 
       -9.988968000000E-001  -1.098902000000E+000  -1.198919000000E+000  -1.298950000000E+000  -1.398997000000E+000  -1.499062000000E+000  -1.599144000000E+000  -1.699244000000E+000  -1.799359000000E+000  -1.899487000000E+000 
       -1.999626000000E+000  -2.099772000000E+000  -2.199924000000E+000  -2.300076000000E+000  -2.400227000000E+000  -2.500374000000E+000  -2.600513000000E+000  -2.700641000000E+000  -2.800756000000E+000  -2.900856000000E+000 
       -3.000938000000E+000  -3.101002000000E+000  -3.201050000000E+000  -3.301081000000E+000  -3.401098000000E+000  -3.501103000000E+000  -3.601099000000E+000  -3.701087000000E+000  -3.801070000000E+000  -3.901048000000E+000 
       -4.001025000000E+000  -4.100999000000E+000  -4.200973000000E+000  -4.300947000000E+000  -4.400920000000E+000  -4.500895000000E+000 
        9.270667200000E-004  -9.904305600000E-002  -1.990122000000E-001  -2.989807000000E-001  -3.989487000000E-001  -4.989169000000E-001  -5.988858000000E-001  -6.988567000000E-001  -7.988307000000E-001  -8.988099000000E-001 
       -9.987965000000E-001  -1.098793000000E+000  -1.198803000000E+000  -1.298829000000E+000  -1.398875000000E+000  -1.498942000000E+000  -1.599031000000E+000  -1.699141000000E+000  -1.799271000000E+000  -1.899416000000E+000 
       -1.999574000000E+000  -2.099741000000E+000  -2.199913000000E+000  -2.300087000000E+000  -2.400259000000E+000  -2.500426000000E+000  -2.600584000000E+000  -2.700729000000E+000  -2.800858000000E+000  -2.900969000000E+000 
       -3.001058000000E+000  -3.101125000000E+000  -3.201170000000E+000  -3.301197000000E+000  -3.401207000000E+000  -3.501204000000E+000  -3.601190000000E+000  -3.701169000000E+000  -3.801143000000E+000  -3.901114000000E+000 
       -4.001083000000E+000  -4.101051000000E+000  -4.201019000000E+000  -4.300988000000E+000  -4.400957000000E+000  -4.500927000000E+000 
        9.586403000000E-004  -9.900745700000E-002  -1.989720000000E-001  -2.989350000000E-001  -3.988968000000E-001  -4.988578000000E-001  -5.988185000000E-001  -6.987799000000E-001  -7.987435000000E-001  -8.987113000000E-001 
       -9.986860000000E-001  -1.098671000000E+000  -1.198671000000E+000  -1.298689000000E+000  -1.398732000000E+000  -1.498800000000E+000  -1.598897000000E+000  -1.699020000000E+000  -1.799167000000E+000  -1.899333000000E+000 
       -1.999514000000E+000  -2.099704000000E+000  -2.199901000000E+000  -2.300099000000E+000  -2.400295000000E+000  -2.500486000000E+000  -2.600667000000E+000  -2.700833000000E+000  -2.800980000000E+000  -2.901103000000E+000 
       -3.001200000000E+000  -3.101268000000E+000  -3.201310000000E+000  -3.301329000000E+000  -3.401329000000E+000  -3.501314000000E+000  -3.601289000000E+000  -3.701256000000E+000  -3.801220000000E+000  -3.901181000000E+000 
       -4.001142000000E+000  -4.101103000000E+000  -4.201065000000E+000  -4.301028000000E+000  -4.400992000000E+000  -4.500958000000E+000 
        9.885747000000E-004  -9.897348300000E-002  -1.989332000000E-001  -2.988907000000E-001  -3.988458000000E-001  -4.987989000000E-001  -5.987504000000E-001  -6.987011000000E-001  -7.986523000000E-001  -8.986060000000E-001 
       -9.985653000000E-001  -1.098534000000E+000  -1.198519000000E+000  -1.298526000000E+000  -1.398561000000E+000  -1.498630000000E+000  -1.598735000000E+000  -1.698875000000E+000  -1.799043000000E+000  -1.899235000000E+000 
       -1.999443000000E+000  -2.099662000000E+000  -2.199887000000E+000  -2.300113000000E+000  -2.400338000000E+000  -2.500557000000E+000  -2.600765000000E+000  -2.700957000000E+000  -2.801125000000E+000  -2.901264000000E+000 
       -3.001370000000E+000  -3.101439000000E+000  -3.201474000000E+000  -3.301481000000E+000  -3.401465000000E+000  -3.501435000000E+000  -3.601394000000E+000  -3.701348000000E+000  -3.801299000000E+000  -3.901249000000E+000 
       -4.001201000000E+000  -4.101154000000E+000  -4.201109000000E+000  -4.301066000000E+000  -4.401027000000E+000  -4.500988000000E+000 
        1.016279000000E-003  -9.894180300000E-002  -1.988968000000E-001  -2.988486000000E-001  -3.987969000000E-001  -4.987418000000E-001  -5.986833000000E-001  -6.986220000000E-001  -7.985587000000E-001  -8.984953000000E-001 
       -9.984349000000E-001  -1.098382000000E+000  -1.198345000000E+000  -1.298333000000E+000  -1.398356000000E+000  -1.498424000000E+000  -1.598539000000E+000  -1.698699000000E+000  -1.798897000000E+000  -1.899121000000E+000 
       -1.999362000000E+000  -2.099614000000E+000  -2.199871000000E+000  -2.300129000000E+000  -2.400386000000E+000  -2.500638000000E+000  -2.600879000000E+000  -2.701103000000E+000  -2.801300000000E+000  -2.901461000000E+000 
       -3.001576000000E+000  -3.101644000000E+000  -3.201667000000E+000  -3.301655000000E+000  -3.401618000000E+000  -3.501565000000E+000  -3.601505000000E+000  -3.701441000000E+000  -3.801378000000E+000  -3.901316000000E+000 
       -4.001258000000E+000  -4.101203000000E+000  -4.201151000000E+000  -4.301103000000E+000  -4.401058000000E+000  -4.501016000000E+000 
        1.041137000000E-003  -9.891319300000E-002  -1.988637000000E-001  -2.988099000000E-001  -3.987515000000E-001  -4.986880000000E-001  -5.986192000000E-001  -6.985449000000E-001  -7.984654000000E-001  -8.983819000000E-001 
       -9.982970000000E-001  -1.098216000000E+000  -1.198147000000E+000  -1.298104000000E+000  -1.398106000000E+000  -1.498168000000E+000  -1.598297000000E+000  -1.698488000000E+000  -1.798724000000E+000  -1.898989000000E+000 
       -1.999271000000E+000  -2.099560000000E+000  -2.199853000000E+000  -2.300147000000E+000  -2.400440000000E+000  -2.500729000000E+000  -2.601011000000E+000  -2.701276000000E+000  -2.801512000000E+000  -2.901703000000E+000 
       -3.001832000000E+000  -3.101894000000E+000  -3.201895000000E+000  -3.301853000000E+000  -3.401784000000E+000  -3.501703000000E+000  -3.601618000000E+000  -3.701534000000E+000  -3.801455000000E+000  -3.901381000000E+000 
       -4.001312000000E+000  -4.101248000000E+000  -4.201190000000E+000  -4.301136000000E+000  -4.401087000000E+000  -4.501041000000E+000 
        1.062533000000E-003  -9.888842000000E-002  -1.988348000000E-001  -2.987759000000E-001  -3.987111000000E-001  -4.986397000000E-001  -5.985606000000E-001  -6.984731000000E-001  -7.983764000000E-001  -8.982704000000E-001 
       -9.981561000000E-001  -1.098037000000E+000  -1.197923000000E+000  -1.297832000000E+000  -1.397794000000E+000  -1.497842000000E+000  -1.597992000000E+000  -1.698230000000E+000  -1.798523000000E+000  -1.898843000000E+000 
       -1.999172000000E+000  -2.099504000000E+000  -2.199835000000E+000  -2.300165000000E+000  -2.400496000000E+000  -2.500828000000E+000  -2.601157000000E+000  -2.701477000000E+000  -2.801770000000E+000  -2.902008000000E+000 
       -3.002158000000E+000  -3.102206000000E+000  -3.202168000000E+000  -3.302077000000E+000  -3.401963000000E+000  -3.501844000000E+000  -3.601729000000E+000  -3.701623000000E+000  -3.801527000000E+000  -3.901439000000E+000 
       -4.001360000000E+000  -4.101289000000E+000  -4.201224000000E+000  -4.301165000000E+000  -4.401112000000E+000  -4.501062000000E+000 
        1.079884000000E-003  -9.886822100000E-002  -1.988111000000E-001  -2.987478000000E-001  -3.986775000000E-001  -4.985989000000E-001  -5.985104000000E-001  -6.984105000000E-001  -7.982969000000E-001  -8.981676000000E-001 
       -9.980206000000E-001  -1.097856000000E+000  -1.197678000000E+000  -1.297508000000E+000  -1.397392000000E+000  -1.497407000000E+000  -1.597596000000E+000  -1.697917000000E+000  -1.798297000000E+000  -1.898688000000E+000 
       -1.999073000000E+000  -2.099448000000E+000  -2.199817000000E+000  -2.300183000000E+000  -2.400552000000E+000  -2.500927000000E+000  -2.601312000000E+000  -2.701703000000E+000  -2.802082000000E+000  -2.902403000000E+000 
       -3.002593000000E+000  -3.102608000000E+000  -3.202492000000E+000  -3.302322000000E+000  -3.402144000000E+000  -3.501979000000E+000  -3.601832000000E+000  -3.701703000000E+000  -3.801589000000E+000  -3.901489000000E+000 
       -4.001401000000E+000  -4.101322000000E+000  -4.201252000000E+000  -4.301188000000E+000  -4.401132000000E+000  -4.501080000000E+000 
        1.092682900000E-003  -9.885326800000E-002  -1.987934000000E-001  -2.987268000000E-001  -3.986521000000E-001  -4.985678000000E-001  -5.984718000000E-001  -6.983615000000E-001  -7.982333000000E-001  -8.980828000000E-001 
       -9.979038000000E-001  -1.097689000000E+000  -1.197431000000E+000  -1.297135000000E+000  -1.396856000000E+000  -1.496779000000E+000  -1.597064000000E+000  -1.697554000000E+000  -1.798064000000E+000  -1.898542000000E+000 
       -1.998984000000E+000  -2.099400000000E+000  -2.199802000000E+000  -2.300198000000E+000  -2.400600000000E+000  -2.501016000000E+000  -2.601458000000E+000  -2.701936000000E+000  -2.802446000000E+000  -2.902935000000E+000 
       -3.003221000000E+000  -3.103144000000E+000  -3.202865000000E+000  -3.302569000000E+000  -3.402311000000E+000  -3.502096000000E+000  -3.601917000000E+000  -3.701766000000E+000  -3.801638000000E+000  -3.901528000000E+000 
       -4.001432000000E+000  -4.101348000000E+000  -4.201273000000E+000  -4.301206000000E+000  -4.401147000000E+000  -4.501093000000E+000 
        1.100531000000E-003  -9.884407400000E-002  -1.987825000000E-001  -2.987138000000E-001  -3.986363000000E-001  -4.985483000000E-001  -5.984473000000E-001  -6.983300000000E-001  -7.981918000000E-001  -8.980262000000E-001 
       -9.978229000000E-001  -1.097566000000E+000  -1.197230000000E+000  -1.296769000000E+000  -1.396136000000E+000  -1.495687000000E+000  -1.596347000000E+000  -1.697194000000E+000  -1.797872000000E+000  -1.898432000000E+000 
       -1.998920000000E+000  -2.099367000000E+000  -2.199791000000E+000  -2.300209000000E+000  -2.400633000000E+000  -2.501080000000E+000  -2.601568000000E+000  -2.702128000000E+000  -2.802806000000E+000  -2.903652000000E+000 
       -3.004313000000E+000  -3.103864000000E+000  -3.203231000000E+000  -3.302770000000E+000  -3.402434000000E+000  -3.502177000000E+000  -3.601974000000E+000  -3.701808000000E+000  -3.801670000000E+000  -3.901552000000E+000 
       -4.001451000000E+000  -4.101364000000E+000  -4.201286000000E+000  -4.301217000000E+000  -4.401156000000E+000  -4.501101000000E+000 
        1.103177000000E-003  -9.884096700000E-002  -1.987789000000E-001  -2.987094000000E-001  -3.986309000000E-001  -4.985417000000E-001  -5.984389000000E-001  -6.983193000000E-001  -7.981774000000E-001  -8.980061000000E-001 
       -9.977937000000E-001  -1.097520000000E+000  -1.197148000000E+000  -1.296594000000E+000  -1.395587000000E+000  -1.492025000000E+000  -1.595800000000E+000  -1.697021000000E+000  -1.797794000000E+000  -1.898390000000E+000 
       -1.998897000000E+000  -2.099355000000E+000  -2.199788000000E+000  -2.300212000000E+000  -2.400645000000E+000  -2.501103000000E+000  -2.601610000000E+000  -2.702206000000E+000  -2.802979000000E+000  -2.904200000000E+000 
       -3.007975000000E+000  -3.104413000000E+000  -3.203406000000E+000  -3.302852000000E+000  -3.402480000000E+000  -3.502206000000E+000  -3.601994000000E+000  -3.701822000000E+000  -3.801681000000E+000  -3.901561000000E+000 
       -4.001458000000E+000  -4.101369000000E+000  -4.201291000000E+000  -4.301221000000E+000  -4.401159000000E+000  -4.501103000000E+000 
        1.100531000000E-003  -9.884407400000E-002  -1.987825000000E-001  -2.987138000000E-001  -3.986363000000E-001  -4.985483000000E-001  -5.984473000000E-001  -6.983300000000E-001  -7.981918000000E-001  -8.980262000000E-001 
       -9.978229000000E-001  -1.097566000000E+000  -1.197230000000E+000  -1.296769000000E+000  -1.396136000000E+000  -1.495687000000E+000  -1.596347000000E+000  -1.697194000000E+000  -1.797872000000E+000  -1.898432000000E+000 
       -1.998920000000E+000  -2.099367000000E+000  -2.199791000000E+000  -2.300209000000E+000  -2.400633000000E+000  -2.501080000000E+000  -2.601568000000E+000  -2.702128000000E+000  -2.802806000000E+000  -2.903652000000E+000 
       -3.004313000000E+000  -3.103864000000E+000  -3.203231000000E+000  -3.302770000000E+000  -3.402434000000E+000  -3.502177000000E+000  -3.601974000000E+000  -3.701808000000E+000  -3.801670000000E+000  -3.901552000000E+000 
       -4.001451000000E+000  -4.101364000000E+000  -4.201286000000E+000  -4.301217000000E+000  -4.401156000000E+000  -4.501101000000E+000 
        1.092682900000E-003  -9.885326800000E-002  -1.987934000000E-001  -2.987268000000E-001  -3.986521000000E-001  -4.985678000000E-001  -5.984718000000E-001  -6.983615000000E-001  -7.982333000000E-001  -8.980828000000E-001 
       -9.979038000000E-001  -1.097689000000E+000  -1.197431000000E+000  -1.297135000000E+000  -1.396856000000E+000  -1.496779000000E+000  -1.597064000000E+000  -1.697554000000E+000  -1.798064000000E+000  -1.898542000000E+000 
       -1.998984000000E+000  -2.099400000000E+000  -2.199802000000E+000  -2.300198000000E+000  -2.400600000000E+000  -2.501016000000E+000  -2.601458000000E+000  -2.701936000000E+000  -2.802446000000E+000  -2.902935000000E+000 
       -3.003221000000E+000  -3.103144000000E+000  -3.202865000000E+000  -3.302569000000E+000  -3.402311000000E+000  -3.502096000000E+000  -3.601917000000E+000  -3.701766000000E+000  -3.801638000000E+000  -3.901528000000E+000 
       -4.001432000000E+000  -4.101348000000E+000  -4.201273000000E+000  -4.301206000000E+000  -4.401147000000E+000  -4.501093000000E+000 
        1.079884000000E-003  -9.886822100000E-002  -1.988111000000E-001  -2.987478000000E-001  -3.986775000000E-001  -4.985989000000E-001  -5.985104000000E-001  -6.984105000000E-001  -7.982969000000E-001  -8.981676000000E-001 
       -9.980206000000E-001  -1.097856000000E+000  -1.197678000000E+000  -1.297508000000E+000  -1.397392000000E+000  -1.497407000000E+000  -1.597596000000E+000  -1.697917000000E+000  -1.798297000000E+000  -1.898688000000E+000 
       -1.999073000000E+000  -2.099448000000E+000  -2.199817000000E+000  -2.300183000000E+000  -2.400552000000E+000  -2.500927000000E+000  -2.601312000000E+000  -2.701703000000E+000  -2.802082000000E+000  -2.902403000000E+000 
       -3.002593000000E+000  -3.102608000000E+000  -3.202492000000E+000  -3.302322000000E+000  -3.402144000000E+000  -3.501979000000E+000  -3.601832000000E+000  -3.701703000000E+000  -3.801589000000E+000  -3.901489000000E+000 
       -4.001401000000E+000  -4.101322000000E+000  -4.201252000000E+000  -4.301188000000E+000  -4.401132000000E+000  -4.501080000000E+000 
        1.062533000000E-003  -9.888842000000E-002  -1.988348000000E-001  -2.987759000000E-001  -3.987111000000E-001  -4.986397000000E-001  -5.985606000000E-001  -6.984731000000E-001  -7.983764000000E-001  -8.982704000000E-001 
       -9.981561000000E-001  -1.098037000000E+000  -1.197923000000E+000  -1.297832000000E+000  -1.397794000000E+000  -1.497842000000E+000  -1.597992000000E+000  -1.698230000000E+000  -1.798523000000E+000  -1.898843000000E+000 
       -1.999172000000E+000  -2.099504000000E+000  -2.199835000000E+000  -2.300165000000E+000  -2.400496000000E+000  -2.500828000000E+000  -2.601157000000E+000  -2.701477000000E+000  -2.801770000000E+000  -2.902008000000E+000 
       -3.002158000000E+000  -3.102206000000E+000  -3.202168000000E+000  -3.302077000000E+000  -3.401963000000E+000  -3.501844000000E+000  -3.601729000000E+000  -3.701623000000E+000  -3.801527000000E+000  -3.901439000000E+000 
       -4.001360000000E+000  -4.101289000000E+000  -4.201224000000E+000  -4.301165000000E+000  -4.401112000000E+000  -4.501062000000E+000 
        1.041137000000E-003  -9.891319300000E-002  -1.988637000000E-001  -2.988099000000E-001  -3.987515000000E-001  -4.986880000000E-001  -5.986192000000E-001  -6.985449000000E-001  -7.984654000000E-001  -8.983819000000E-001 
       -9.982970000000E-001  -1.098216000000E+000  -1.198147000000E+000  -1.298104000000E+000  -1.398106000000E+000  -1.498168000000E+000  -1.598297000000E+000  -1.698488000000E+000  -1.798724000000E+000  -1.898989000000E+000 
       -1.999271000000E+000  -2.099560000000E+000  -2.199853000000E+000  -2.300147000000E+000  -2.400440000000E+000  -2.500729000000E+000  -2.601011000000E+000  -2.701276000000E+000  -2.801512000000E+000  -2.901703000000E+000 
       -3.001832000000E+000  -3.101894000000E+000  -3.201895000000E+000  -3.301853000000E+000  -3.401784000000E+000  -3.501703000000E+000  -3.601618000000E+000  -3.701534000000E+000  -3.801455000000E+000  -3.901381000000E+000 
       -4.001312000000E+000  -4.101248000000E+000  -4.201190000000E+000  -4.301136000000E+000  -4.401087000000E+000  -4.501041000000E+000 
        1.016279000000E-003  -9.894180300000E-002  -1.988968000000E-001  -2.988486000000E-001  -3.987969000000E-001  -4.987418000000E-001  -5.986833000000E-001  -6.986220000000E-001  -7.985587000000E-001  -8.984953000000E-001 
       -9.984349000000E-001  -1.098382000000E+000  -1.198345000000E+000  -1.298333000000E+000  -1.398356000000E+000  -1.498424000000E+000  -1.598539000000E+000  -1.698699000000E+000  -1.798897000000E+000  -1.899121000000E+000 
       -1.999362000000E+000  -2.099614000000E+000  -2.199871000000E+000  -2.300129000000E+000  -2.400386000000E+000  -2.500638000000E+000  -2.600879000000E+000  -2.701103000000E+000  -2.801300000000E+000  -2.901461000000E+000 
       -3.001576000000E+000  -3.101644000000E+000  -3.201667000000E+000  -3.301655000000E+000  -3.401618000000E+000  -3.501565000000E+000  -3.601505000000E+000  -3.701441000000E+000  -3.801378000000E+000  -3.901316000000E+000 
       -4.001258000000E+000  -4.101203000000E+000  -4.201151000000E+000  -4.301103000000E+000  -4.401058000000E+000  -4.501016000000E+000 
        9.885747000000E-004  -9.897348300000E-002  -1.989332000000E-001  -2.988907000000E-001  -3.988458000000E-001  -4.987989000000E-001  -5.987504000000E-001  -6.987011000000E-001  -7.986523000000E-001  -8.986060000000E-001 
       -9.985653000000E-001  -1.098534000000E+000  -1.198519000000E+000  -1.298526000000E+000  -1.398561000000E+000  -1.498630000000E+000  -1.598735000000E+000  -1.698875000000E+000  -1.799043000000E+000  -1.899235000000E+000 
       -1.999443000000E+000  -2.099662000000E+000  -2.199887000000E+000  -2.300113000000E+000  -2.400338000000E+000  -2.500557000000E+000  -2.600765000000E+000  -2.700957000000E+000  -2.801125000000E+000  -2.901264000000E+000 
       -3.001370000000E+000  -3.101439000000E+000  -3.201474000000E+000  -3.301481000000E+000  -3.401465000000E+000  -3.501435000000E+000  -3.601394000000E+000  -3.701348000000E+000  -3.801299000000E+000  -3.901249000000E+000 
       -4.001201000000E+000  -4.101154000000E+000  -4.201109000000E+000  -4.301066000000E+000  -4.401027000000E+000  -4.500988000000E+000 
        9.586403000000E-004  -9.900745700000E-002  -1.989720000000E-001  -2.989350000000E-001  -3.988968000000E-001  -4.988578000000E-001  -5.988185000000E-001  -6.987799000000E-001  -7.987435000000E-001  -8.987113000000E-001 
       -9.986860000000E-001  -1.098671000000E+000  -1.198671000000E+000  -1.298689000000E+000  -1.398732000000E+000  -1.498800000000E+000  -1.598897000000E+000  -1.699020000000E+000  -1.799167000000E+000  -1.899333000000E+000 
       -1.999514000000E+000  -2.099704000000E+000  -2.199901000000E+000  -2.300099000000E+000  -2.400295000000E+000  -2.500486000000E+000  -2.600667000000E+000  -2.700833000000E+000  -2.800980000000E+000  -2.901103000000E+000 
       -3.001200000000E+000  -3.101268000000E+000  -3.201310000000E+000  -3.301329000000E+000  -3.401329000000E+000  -3.501314000000E+000  -3.601289000000E+000  -3.701256000000E+000  -3.801220000000E+000  -3.901181000000E+000 
       -4.001142000000E+000  -4.101103000000E+000  -4.201065000000E+000  -4.301028000000E+000  -4.400992000000E+000  -4.500958000000E+000 
        9.270667200000E-004  -9.904305600000E-002  -1.990122000000E-001  -2.989807000000E-001  -3.989487000000E-001  -4.989169000000E-001  -5.988858000000E-001  -6.988567000000E-001  -7.988307000000E-001  -8.988099000000E-001 
       -9.987965000000E-001  -1.098793000000E+000  -1.198803000000E+000  -1.298829000000E+000  -1.398875000000E+000  -1.498942000000E+000  -1.599031000000E+000  -1.699141000000E+000  -1.799271000000E+000  -1.899416000000E+000 
       -1.999574000000E+000  -2.099741000000E+000  -2.199913000000E+000  -2.300087000000E+000  -2.400259000000E+000  -2.500426000000E+000  -2.600584000000E+000  -2.700729000000E+000  -2.800858000000E+000  -2.900969000000E+000 
       -3.001058000000E+000  -3.101125000000E+000  -3.201170000000E+000  -3.301197000000E+000  -3.401207000000E+000  -3.501204000000E+000  -3.601190000000E+000  -3.701169000000E+000  -3.801143000000E+000  -3.901114000000E+000 
       -4.001083000000E+000  -4.101051000000E+000  -4.201019000000E+000  -4.300988000000E+000  -4.400957000000E+000  -4.500927000000E+000 
        8.943941200000E-004  -9.907961600000E-002  -1.990532000000E-001  -2.990267000000E-001  -3.990005000000E-001  -4.989752000000E-001  -5.989514000000E-001  -6.989303000000E-001  -7.989129000000E-001  -8.989012000000E-001 
       -9.988968000000E-001  -1.098902000000E+000  -1.198919000000E+000  -1.298950000000E+000  -1.398997000000E+000  -1.499062000000E+000  -1.599144000000E+000  -1.699244000000E+000  -1.799359000000E+000  -1.899487000000E+000 
       -1.999626000000E+000  -2.099772000000E+000  -2.199924000000E+000  -2.300076000000E+000  -2.400227000000E+000  -2.500374000000E+000  -2.600513000000E+000  -2.700641000000E+000  -2.800756000000E+000  -2.900856000000E+000 
       -3.000938000000E+000  -3.101002000000E+000  -3.201050000000E+000  -3.301081000000E+000  -3.401098000000E+000  -3.501103000000E+000  -3.601099000000E+000  -3.701087000000E+000  -3.801070000000E+000  -3.901048000000E+000 
       -4.001025000000E+000  -4.100999000000E+000  -4.200973000000E+000  -4.300947000000E+000  -4.400920000000E+000  -4.500895000000E+000 
        8.611060900000E-004  -9.911659400000E-002  -1.990944000000E-001  -2.990725000000E-001  -3.990515000000E-001  -4.990319000000E-001  -5.990144000000E-001  -6.990000000000E-001  -7.989898000000E-001  -8.989851000000E-001 
       -9.989877000000E-001  -1.098999000000E+000  -1.199021000000E+000  -1.299055000000E+000  -1.399102000000E+000  -1.499164000000E+000  -1.599240000000E+000  -1.699330000000E+000  -1.799433000000E+000  -1.899547000000E+000 
       -1.999670000000E+000  -2.099799000000E+000  -2.199933000000E+000  -2.300067000000E+000  -2.400200000000E+000  -2.500330000000E+000  -2.600453000000E+000  -2.700567000000E+000  -2.800670000000E+000  -2.900760000000E+000 
       -3.000836000000E+000  -3.100898000000E+000  -3.200945000000E+000  -3.300979000000E+000  -3.401001000000E+000  -3.501012000000E+000  -3.601015000000E+000  -3.701010000000E+000  -3.801000000000E+000  -3.900985000000E+000 
       -4.000968000000E+000  -4.100948000000E+000  -4.200927000000E+000  -4.300905000000E+000  -4.400884000000E+000  -4.500861000000E+000 
        8.276192200000E-004  -9.915353400000E-002  -1.991351000000E-001  -2.991175000000E-001  -3.991011000000E-001  -4.990865000000E-001  -5.990744000000E-001  -6.990656000000E-001  -7.990611000000E-001  -8.990620000000E-001 
       -9.990697000000E-001  -1.099085000000E+000  -1.199110000000E+000  -1.299146000000E+000  -1.399192000000E+000  -1.499251000000E+000  -1.599322000000E+000  -1.699404000000E+000  -1.799497000000E+000  -1.899598000000E+000 
       -1.999708000000E+000  -2.099822000000E+000  -2.199940000000E+000  -2.300060000000E+000  -2.400177000000E+000  -2.500292000000E+000  -2.600401000000E+000  -2.700503000000E+000  -2.800596000000E+000  -2.900678000000E+000 
       -3.000749000000E+000  -3.100807000000E+000  -3.200854000000E+000  -3.300890000000E+000  -3.400914000000E+000  -3.500930000000E+000  -3.600938000000E+000  -3.700939000000E+000  -3.800934000000E+000  -3.900925000000E+000 
       -4.000914000000E+000  -4.100899000000E+000  -4.200882000000E+000  -4.300865000000E+000  -4.400846000000E+000  -4.500828000000E+000 
        7.942841000000E-004  -9.919004900000E-002  -1.991751000000E-001  -2.991613000000E-001  -3.991489000000E-001  -4.991387000000E-001  -5.991310000000E-001  -6.991269000000E-001  -7.991269000000E-001  -8.991323000000E-001 
       -9.991437000000E-001  -1.099162000000E+000  -1.199189000000E+000  -1.299225000000E+000  -1.399271000000E+000  -1.499326000000E+000  -1.599392000000E+000  -1.699467000000E+000  -1.799551000000E+000  -1.899642000000E+000 