BEGIN TIMING
  TDIS6 ImportMt3dmsReinject.tdis
END TIMING

BEGIN MODELS
  GWF6 ImportMt3dmsReinject.nam    MODFLOW
END MODELS

BEGIN EXCHANGES
END EXCHANGES

BEGIN SOLUTIONGROUP     1
  MXITER     1
  IMS6 ImportMt3dmsReinject.ims    MODFLOW 
END SOLUTIONGROUP

