# Name File for MODFLOW created on 2/19/2019 by ModelMuse Version 3.10.0.42
BEGIN OPTIONS
  LIST ImportedP1_Case1b.lst
  PRINT_INPUT
  SAVE_FLOWS
END OPTIONS

BEGIN PACKAGES
  DIS6         ImportedP1_Case1b.dis
  IC6          ImportedP1_Case1b.ic
  NPF6         ImportedP1_Case1b.npf
  OC6          ImportedP1_Case1b.oc
  CHD6         ImportedP1_Case1b.chd
END PACKAGES
