# MT3DMS Benchmark Test Problem #1
# 1D UNIFORM FLOW FIELD
# Initial Conditions Package file created on 2/19/2019 by ModelMuse version 3.10.0.42.
BEGIN OPTIONS
END OPTIONS

BEGIN GRIDDATA
  STRT LAYERED
    INTERNAL IPRN     12 # STRT Layer 1
        7.000000000000E+000   7.000000000000E+000   7.000000000000E+000   7.000000000000E+000   7.000000000000E+000   7.000000000000E+000   7.000000000000E+000   7.000000000000E+000   7.000000000000E+000   7.000000000000E+000 
        7.000000000000E+000   7.000000000000E+000   7.000000000000E+000   7.000000000000E+000   7.000000000000E+000   6.000000000000E+000   6.000000000000E+000   6.000000000000E+000   6.000000000000E+000   6.000000000000E+000 
        6.000000000000E+000   6.000000000000E+000   6.000000000000E+000   6.000000000000E+000   6.000000000000E+000   6.000000000000E+000   6.000000000000E+000   6.000000000000E+000   6.000000000000E+000   6.000000000000E+000 
        5.000000000000E+000   5.000000000000E+000   5.000000000000E+000   5.000000000000E+000   5.000000000000E+000   5.000000000000E+000   5.000000000000E+000   5.000000000000E+000   5.000000000000E+000   5.000000000000E+000 
        5.000000000000E+000   5.000000000000E+000   5.000000000000E+000   5.000000000000E+000   5.000000000000E+000   4.000000000000E+000   4.000000000000E+000   4.000000000000E+000   4.000000000000E+000   4.000000000000E+000 
        4.000000000000E+000   4.000000000000E+000   4.000000000000E+000   4.000000000000E+000   4.000000000000E+000   4.000000000000E+000   4.000000000000E+000   4.000000000000E+000   4.000000000000E+000   4.000000000000E+000 
        3.000000000000E+000   3.000000000000E+000   3.000000000000E+000   3.000000000000E+000   3.000000000000E+000   3.000000000000E+000   3.000000000000E+000   3.000000000000E+000   3.000000000000E+000   3.000000000000E+000 
        3.000000000000E+000   3.000000000000E+000   3.000000000000E+000   3.000000000000E+000   3.000000000000E+000   2.000000000000E+000   2.000000000000E+000   2.000000000000E+000   2.000000000000E+000   2.000000000000E+000 
        2.000000000000E+000   2.000000000000E+000   2.000000000000E+000   2.000000000000E+000   2.000000000000E+000   2.000000000000E+000   2.000000000000E+000   2.000000000000E+000   2.000000000000E+000   2.000000000000E+000 
        1.000000000000E+000   1.000000000000E+000   1.000000000000E+000   1.000000000000E+000   1.000000000000E+000   1.000000000000E+000   1.000000000000E+000   1.000000000000E+000   1.000000000000E+000   1.000000000000E+000 
        1.000000000000E+000 
END GRIDDATA

