BEGIN TIMING
  TDIS6 ImportedP1_Case1b.tdis
END TIMING

BEGIN MODELS
  GWF6 ImportedP1_Case1b.nam    MODFLOW
END MODELS

BEGIN EXCHANGES
END EXCHANGES

BEGIN SOLUTIONGROUP     1
  MXITER     1
  IMS6 ImportedP1_Case1b.ims    MODFLOW
END SOLUTIONGROUP

