C
      SUBROUTINE BTN5OPEN(INUNIT,IOUT,INBTN,INADV,INDSP,INSSM,INRCT,
     & INGCG,INTOB,INHSS,INFTL,FPRT,MXTRNOP,iUnitTRNOP,NameTRNOP)
C *******************************************************************
C OPEN FILES, USING THE METHOD OF MODFLOW-96, 2000 & 2005
c NOTE: THE STYLE OF UNFORMATTED FILES IS SPECIFIED IN THE
C INCLUDE FILE 'FILESPEC.INC'
C *******************************************************************
C Last modified: 02-20-2010
C
      INTEGER       INUNIT,IOUT,INBTN,INADV,INDSP,INSSM,INRCT,INGCG,
     &              INTOB,INHSS,INFTL,ILIST,IBTN,IFTL,IFLEN,IFTLFMT,
     &              MXTRNOP,iUnitTRNOP
      LOGICAL       LOP
      CHARACTER*200 LINE,FNAME
      CHARACTER*20  FMTARG,ACCARG,FILACT
      CHARACTER*4   NameTRNOP(MXTRNOP)
      CHARACTER     FILSTAT*7,FPRT*1
      DIMENSION     iUnitTRNOP(MXTRNOP)
      COMMON   /FTL/IFTLFMT
C
      INCLUDE 'FILESPEC.INC'
C
C--INITIALIZE.
      ILIST=0
      IBTN=0
      IFTL=0      
      DO I=1,MXTRNOP
        iUnitTRNOP(I)=0
      ENDDO
C
C--READ A LINE; IGNORE BLANK LINES AND PRINT COMMENT LINES.
   10 READ(INUNIT,'(A)',END=1000) LINE
      IF(LINE.EQ.' ') GOTO 10
      IF(LINE(1:1).EQ.'#') THEN
        IF(ILIST.NE.0) WRITE(IOUT,'(A)') LINE
        GOTO 10
      ENDIF
C
C--DECODE THE FILE TYPE AND UNIT NUMBER.
      LLOC=1
      CALL URWORD(LINE,LLOC,ITYP1,ITYP2,1,N,R,IOUT,INUNIT)
      CALL URWORD(LINE,LLOC,ISTART,ISTOP,2,IU,R,IOUT,INUNIT)
C
C--DECODE THE FILE NAME.
      CALL URWORD(LINE,LLOC,INAM1,INAM2,0,N,R,IOUT,INUNIT)
      IFLEN=INAM2-INAM1+1
      FNAME(1:IFLEN)=LINE(INAM1:INAM2)
C
C--CHECK FOR A VALID FILE TYPE.
      FMTARG='FORMATTED'
      ACCARG='SEQUENTIAL'
      FILSTAT='UNKNOWN'
      FILACT=ACTION(2)
C
C--FIRST ENTRY MUST BE FILE-TYPE "LIST".
      IF(ILIST.EQ.0) THEN
        IF(LINE(ITYP1:ITYP2).NE.'LIST') THEN
          WRITE(*,11)
   11     FORMAT(1X,'FIRST ENTRY IN NAME FILE MUST BE "LIST".')
          CALL USTOP(' ')
        ENDIF
        IF(IU.EQ.0) THEN
          IU=IOUT
        ELSEIF(IU.GT.0) THEN
          IOUT=IU
        ENDIF  
C
C--CHECK FOR "BTN" FILE TYPE.
      ELSEIF(LINE(ITYP1:ITYP2).EQ.'BTN') THEN
        IBTN=1 
        FILSTAT='OLD    '
        FILACT=ACTION(1)
        IF(IU.EQ.0) THEN
          IU=INBTN               
        ELSEIF(IU.GT.0) THEN
          INBTN=IU
        ENDIF         
C
C--CHECK FOR "FTL" FILE TYPE.
      ELSEIF(LINE(ITYP1:ITYP2).EQ.'FTL') THEN
C
C--DECODE OPTIONAL FORMAT AND OUTPUT KEYWORDS
        CALL URWORD(LINE,LLOC,ISTART,ISTOP,1,N,R,IOUT,INUNIT)
        CALL URWORD(LINE,LLOC,ISTART2,ISTOP2,1,N,R,IOUT,INUNIT)
        IFTL=1
        IFTLFMT=0
        FILSTAT='OLD    '
        FILACT=ACTION(1)
        FMTARG=FORM
        ACCARG=ACCESS
        IF(IU.EQ.0) THEN
          IU=INFTL
        ELSE
          INFTL=IU
        ENDIF
        IF(LINE(ISTART:ISTOP)  .EQ.'FREE' .OR.
     &   LINE(ISTART2:ISTOP2).EQ.'FREE') THEN
          IFTLFMT=1
          FMTARG='FORMATTED'
          ACCARG='SEQUENTIAL'
        ENDIF
        IF(LINE(ISTART:ISTOP)  .EQ.'PRINT' .OR.
     &     LINE(ISTART2:ISTOP2).EQ.'PRINT') THEN
          FPRT='Y'
        ENDIF
C               
C--CHECK FOR "UNFORMATTED" FILE TYPE.
      ELSEIF(LINE(ITYP1:ITYP2).EQ.'DATA(BINARY)') THEN
        FMTARG=FORM
        ACCARG=ACCESS
C
C--CHECK FOR "FORMATTED FILE TYPE.
      ELSEIF(LINE(ITYP1:ITYP2).EQ.'DATA') THEN
        FMTARG='FORMATTED'
        ACCARG='SEQUENTIAL'                        
C
C--CHECK FOR MAJOR OPTIONS.
      ELSE                       
        DO I=1,MXTRNOP
          IF(LINE(ITYP1:ITYP2).EQ.NameTRNOP(I)) THEN
            IF(IU.EQ.0) THEN          
              if(NameTRNOP(i).EQ.'ADV') THEN
                IU=INADV
              elseif(NameTRNOP(i).EQ.'DSP') THEN
                IU=INDSP
              elseif(NameTRNOP(i).EQ.'SSM') THEN
                IU=INSSM                
              elseif(NameTRNOP(i).EQ.'RCT') THEN
                IU=INRCT
              elseif(NameTRNOP(i).EQ.'GCG') THEN
                IU=INGCG
              elseif(NameTRNOP(i).EQ.'TOB') THEN
                IU=INTOB
              elseif(NameTRNOP(i).EQ.'HSS') THEN
                IU=INHSS                                                                             
              else
                WRITE(*,20) LINE(ITYP1:ITYP2)
   20           FORMAT(1X,'UNDEFINED UNIT # FOR FILE TYPE: ',A)  
                CALL USTOP(' ')  
              endif  
            ENDIF  
            iUnitTRNOP(I)=IU
            FILSTAT='OLD    '
            FILACT=ACTION(1)
            GO TO 30
          ENDIF
        ENDDO     
        WRITE(*,21) LINE(ITYP1:ITYP2)
   21   FORMAT(1X,'ILLEGAL FILE TYPE IN NAME FILE: ',A)
        CALL USTOP(' ')
   30   CONTINUE
      ENDIF      
C
C--WRITE THE FILE NAME IF THE FILE IS NOT THE
C--LISTING FILE.  THEN OPEN THE FILE.
      INQUIRE(UNIT=IU,OPENED=LOP)
      IF(LOP) CLOSE(UNIT=IU)
      IF(ILIST.NE.0) WRITE(IOUT,36) LINE(INAM1:INAM2),
     &     LINE(ITYP1:ITYP2),IU
   36 FORMAT(1X,/1X,'OPENING ',A,/
     &     1X,'FILE TYPE:',A,'   UNIT',I4)
      OPEN(UNIT=IU,FILE=FNAME(1:IFLEN),STATUS=FILSTAT,
     &     FORM=FMTARG,ACCESS=ACCARG,ACTION=FILACT)
C
C--IF THE OPENED FILE IS THE LISTING FILE, WRITE ITS NAME.
C--GO BACK AND READ NEXT RECORD.
      IF(ILIST.EQ.0) WRITE(IOUT,37) LINE(INAM1:INAM2),IU
   37 FORMAT(1X,'LISTING FILE: ',A,/25X,'UNIT',I4)
      ILIST=1
      GOTO 10
C
C--END OF NAME FILE.  RETURN PROVIDED THAT LISTING FILE,
C--FTL and BTN FILES HAVE BEEN OPENED.
 1000 IF(ILIST.EQ.0) THEN
        WRITE(*,1001)
        CALL USTOP(' ')
      ELSEIF(IFTL.EQ.0) THEN
        WRITE(IOUT,1002)
        CALL USTOP(' ')
      ELSEIF(IBTN.EQ.0) THEN
        WRITE(IOUT,1003)
        CALL USTOP(' ')
      ENDIF
 1001 FORMAT(1X,'NAME FILE IS EMPTY.')
 1002 FORMAT(1X,'Flow-Transport Link FILE HAS NOT BEEN OPENED.')
 1003 FORMAT(1X,'BTN PACKAGE FILE HAS NOT BEEN OPENED.')
c
      RETURN
      END
C
C
      SUBROUTINE BTN5DF(INBTN,IOUT,ISUM,ISUM2,NCOL,NROW,NLAY,NPER,
     & NCOMP,MCOMP,MXTRNOP,iUnitTRNOP,NameTRNOP,TUNIT,LUNIT,MUNIT,
     & NODES,MXCOMP,iNameFile)
C ****************************************************************
C THIS SUBROUTINE READS PROBLEM DIMENSIONS AND TRANSPORT OPTIONS.
C ****************************************************************
C last modified: 02-15-2005
C
      IMPLICIT  NONE
      INTEGER   INBTN,IOUT,ISUM,ISUM2,NCOL,NROW,NLAY,NPER,
     &          NCOMP,MCOMP,I,NODES,IERR,MXCOMP,iNameFile,
     &          MXTRNOP,iUnitTRNOP     
      CHARACTER HEADNG*80,Line*80,
     &          TUNIT*4,LUNIT*4,MUNIT*4,NameTRNOP*4
      DIMENSION HEADNG(2),
     &          NameTRNOP(MXTRNOP),iUnitTRNOP(MXTRNOP)
C
C--READ AND PRINT HEADING
      READ(INBTN,'(A80)') (HEADNG(I),I=1,2)
      WRITE(IOUT,10)
      WRITE(IOUT,15) (HEADNG(I),I=1,2)
      WRITE(IOUT,10)
   10 FORMAT(1X,' ----- ')
   15 FORMAT(1X,'| M T | ',A80/1X,'| 3 D | ',A80)
C
C--READ AND PRINT NO. OF LAYERS, ROWS, COLUMNS, AND STRESS PERIODS,
C--COMPONENTS
      READ(INBTN,'(6I10)',ERR=25,IOSTAT=IERR)
     &                    NLAY,NROW,NCOL,NPER,NCOMP,MCOMP
      IF(NCOMP.LT.1) NCOMP=1
      IF(MCOMP.LT.1) MCOMP=1
      IF(NCOMP.GT.MXCOMP.OR.MCOMP.GT.MXCOMP) THEN
        WRITE(*,1005)
        CALL USTOP(' ')
      ENDIF
   25 IF(IERR.NE.0) THEN
        BACKSPACE(INBTN)
        READ(INBTN,'(4I10)') NLAY,NROW,NCOL,NPER
        NCOMP=1
        MCOMP=1
      ENDIF
      WRITE(IOUT,1000) NLAY,NROW,NCOL,NPER,NCOMP,MCOMP
 1000 FORMAT(1X,'THE TRANSPORT MODEL CONSISTS OF ',I5,' LAYER(S)',I5,
     & ' ROW(S)',I5,' COLUMN(S)',
     & /1X,'NUMBER OF STRESS PERIOD(S) FOR TRANSPORT SIMULATION =',I5,
     & /1X,'NUMBER OF ALL COMPONENTS INCLUDED IN SIMULATION =',I5,
     & /1X,'NUMBER OF MOBILE COMPONENTS INCLUDED IN SIMULATION =',I5)
 1005 FORMAT(/1X,'ERROR: MAXIMUM NUMBER OF COMPONENTS EXCEEDED!',
     &       /1X,'INCREASE DIMENSION OF [MXCOMP] IN THE MAIN PROGRAM.')
C
C--READ AND PRINT UNITS FOR TIME, LENGTH AND MASS TO BE USED
      READ(INBTN,'(3A4)') TUNIT,LUNIT,MUNIT
      WRITE(IOUT,1010) TUNIT,LUNIT,MUNIT
 1010 FORMAT(1X,'UNIT FOR TIME IS ',A4,';',2X,'UNIT FOR LENGTH IS ',
     & A4,';',2X,'UNIT FOR MASS IS ',A4)
C
C--IGNORE TRANSPORT OPTIONS INPUT WHICH ARE DEFINED THROUGH NameFile     
      READ(INBTN,'(A)',ERR=100) Line
  100 WRITE(IOUT,1020)
      DO I=1,MXTRNOP
        IF(iUnitTRNOP(I).GT.0) 
     &   WRITE(IOUT,1022) NameTRNOP(I),iUnitTRNOP(I)
      ENDDO     
      WRITE(IOUT,1024)     
 1020 FORMAT(1X,'OPTIONAL PACKAGES INCLUDED IN CURRENT SIMULATION:')
 1022 FORMAT(1X,' o ',A, '  ON UNIT',I3)
 1024 FORMAT(1X)
C
C--INITIALIZE ARRAY POINTERS FOR ALLOCATING MEMORY
      ISUM=1
      ISUM2=1
C
C--GET TOTAL NUMBER OF MODEL NODES
      NODES=NCOL*NROW*NLAY
C
C--NORMAL RETURN
      RETURN
      END
C
C
      SUBROUTINE BTN5AL(INBTN,IOUT,ISUM,ISUM2,NCOL,NROW,NLAY,NCOMP,
     & LCLAYC,LCDELR,LCDELC,LCHTOP,LCDZ,LCPR,LCXBC,LCYBC,LCZBC,
     & LCQX,LCQY,LCQZ,LCQSTO,LCDH,LCIB,LCCOLD,LCCNEW,LCCWGT,
     & LCCADV,LCRETA,LCSR,LCBUFF,ISOTHM,LCRHOB,LCPRSITY2,LCRETA2)
C **********************************************************************
C THIS SUBROUTINE ALLOCATES SPACE FOR ARRAYS NEEDED BY THE ENTIRE MODEL.
C **********************************************************************
C last modified: 02-20-2010
C
      IMPLICIT  NONE
      INTEGER   INBTN,IOUT,ISUM,ISUM2,NCOL,NROW,NLAY,NCOMP,LCSR,
     & LCLAYC,LCDELR,LCDELC,LCHTOP,LCDZ,LCPR,LCXBC,LCYBC,
     & LCZBC,LCQX,LCQY,LCQZ,LCDH,LCIB,LCCOLD,LCCNEW,LCCWGT,LCCADV,
     & LCRETA,LCBUFF,NODES,ISUMX,ISUMIX,ISOLD,ISOLD2,LCQSTO,
     & ISOTHM,LCRHOB,LCPRSITY2,LCRETA2
C
C--PRINT PACKAGE NAME AND VERSION NUMBER
      WRITE(IOUT,1030) INBTN
 1030 FORMAT(1X,'BTN5 -- BASIC TRANSPORT PACKAGE,',
     & ' VERSION 5, FEBRUARY 2010, INPUT READ FROM UNIT',I3)
C
C--ALLOCATE SPACE FOR ARRAYS
      ISOLD=ISUM
      ISOLD2=ISUM2
      NODES=NCOL*NROW*NLAY
C
C--INTEGER ARRAYS
      LCLAYC=ISUM2
      ISUM2=ISUM2+NLAY
      LCIB=ISUM2
      ISUM2=ISUM2+NODES * NCOMP
C
C--REAL ARRAYS
      LCDELR=ISUM
      ISUM=ISUM+NCOL
      LCDELC=ISUM
      ISUM=ISUM+NROW
      LCHTOP=ISUM
      ISUM=ISUM+NCOL*NROW
      LCDZ=ISUM
      ISUM=ISUM+NODES
      LCPR=ISUM
      ISUM=ISUM+NODES
      LCXBC=ISUM
      ISUM=ISUM+NCOL
      LCYBC=ISUM
      ISUM=ISUM+NROW
      LCZBC=ISUM
      ISUM=ISUM+NODES
      LCQX=ISUM
      ISUM=ISUM+NODES
      LCQY=ISUM
      ISUM=ISUM+NODES
      LCQZ=ISUM
      ISUM=ISUM+NODES
      LCQSTO=ISUM
      ISUM=ISUM+NODES
      LCDH=ISUM
      ISUM=ISUM+NODES
      LCCOLD=ISUM
      ISUM=ISUM+NODES * NCOMP
      LCCNEW=ISUM
      ISUM=ISUM+NODES * NCOMP
      LCCWGT=ISUM
      ISUM=ISUM+NODES * NCOMP
      LCCADV=ISUM
      ISUM=ISUM+NODES * NCOMP
      LCRETA=ISUM
      ISUM=ISUM+NODES * NCOMP
      LCSR=ISUM
      ISUM=ISUM+NODES * NCOMP
      LCBUFF=ISUM
      ISUM=ISUM+NODES
C
C--INITIALIZE VARIABLES WHOSE VALUES DEPEND ON OTHER PACKAGES
      ISOTHM=0
      LCRHOB=0
      LCPRSITY2=0
      LCRETA2=0
C
C--CHECK HOW MANY ELEMENTS OF THE X AND IX ARRAYS ARE USED
      ISUMX=ISUM-ISOLD
      ISUMIX=ISUM2-ISOLD2
      WRITE(IOUT,1090) ISUMX,ISUMIX
 1090 FORMAT(1X,I10,' ELEMENTS OF THE  X ARRAY USED BY THE BTN PACKAGE'
     & /1X,I10,' ELEMENTS OF THE IX ARRAY USED BY THE BTN PACKAGE'/)
C
C--NORMAL RETURN
      RETURN
      END
C
C
      SUBROUTINE BTN5RP(IN,IOUT,IUCN,IUCN2,IOBS,IMAS,ICNF,ICBM,NCOL,
     & NROW,NLAY,NCOMP,ISOTHM,LAYCON,DELR,DELC,HTOP,DZ,PRSITY,ICBUND,
     & COLD,CNEW,CADV,CINACT,THKMIN,XBC,YBC,ZBC,RETA,RFMIN,BUFF,
     & MXPRS,NPRS,TIMPRS,MXOBS,NOBS,NPROBS,LOCOBS,TUNIT,LUNIT,MUNIT)
C **********************************************************************
C THIS SUBROUTINE READS AND PREPARES INPUT DATA RELEVANT TO THE ENTIRE
C SIMULATION.
C***********************************************************************
C last modified: 02-15-2005
C
      IMPLICIT  NONE
      INTEGER   IN,IOUT,IUCN,IOBS,IMAS,ICNF,ICBM,NCOL,NROW,NLAY,LAYCON,
     &          NCOMP,ICBUND,MXPRS,NPRS,MXOBS,NOBS,LOCOBS,IFMTCN,IFMTNP,
     &          IFMTRF,IFMTDP,N,J,I,K,IP1,IERR,NPROBS,NPRMAS,INDEX,
     &          IUCN2,ISOTHM
      REAL      DELR,DELC,HORIGN,HTOP,DZ,PRSITY,CNEW,COLD,CINACT,TIMPRS,
     &          XBC,YBC,ZBC,ZZ,XMAX,YMAX,ZMAX,RETA,RFMIN,BUFF,TEMP,CADV,
     &          THKMIN,CDRY
      LOGICAL   UNIFOR,UNIDX,UNIDY,UNIDZ,SAVUCN,SAVCBM,CHKMAS
      CHARACTER ANAME*24,FLNAME*50,FINDEX*30,TUNIT*4,LUNIT*4,MUNIT*4
      DIMENSION LAYCON(NLAY),ICBUND(NCOL,NROW,NLAY,NCOMP),DELR(NCOL),
     &          DELC(NROW),DZ(NCOL,NROW,NLAY),PRSITY(NCOL,NROW,NLAY),
     &          HTOP(NCOL,NROW),XBC(NCOL),YBC(NROW),ZBC(NCOL,NROW,NLAY),
     &          CNEW(NCOL,NROW,NLAY,NCOMP),COLD(NCOL,NROW,NLAY,NCOMP),
     &          RETA(NCOL,NROW,NLAY,NCOMP),BUFF(NCOL,NROW,NLAY),
     &          CADV(NCOL,NROW,NLAY,NCOMP),TIMPRS(MXPRS),LOCOBS(3,MXOBS)
      COMMON /PD/HORIGN,XMAX,YMAX,ZMAX,UNIDX,UNIDY,UNIDZ
      COMMON /OC/IFMTCN,IFMTNP,IFMTRF,IFMTDP,SAVUCN,SAVCBM,CHKMAS,NPRMAS
C
C--READ INPUT DATA
C  ===============
C
C--READ AND ECHO LAYER TYPE CODES
      READ(IN,'(40I2)') (LAYCON(K),K=1,NLAY)
      WRITE(IOUT,1000)
 1000 FORMAT(1X,'LAYER NUMBER  AQUIFER TYPE',
     &      /1X,'------------  ------------')
      DO K=1,NLAY
        WRITE(IOUT,1010) K,LAYCON(K)
      ENDDO
 1010 FORMAT(1X,4X,I3,10X,I3)
C
C--CALL RARRAY TO READ IN CELL WIDTH ALONG ROWS
      ANAME='WIDTH ALONG ROWS (DELR)'
      CALL RARRAY(DELR(1),ANAME,1,NCOL,0,IN,IOUT)
C
C--CHECK WHETHER ELEMENTS OF DELR ARE UNIFROM
      UNIDX=UNIFOR(DELR(1),NCOL,1,1)
C
C--CALL RARRAY TO READ IN CELL WIDTH ALONG COLUMNS
      ANAME='WIDTH ALONG COLS (DELC)'
      CALL RARRAY(DELC(1),ANAME,1,NROW,0,IN,IOUT)
C
C--CHECK WHETHER ELEMENTS OF DELC ARE UNIFROM
      UNIDY=UNIFOR(DELC(1),NROW,1,1)
C
C--CALL RARRAY TO READ IN TOP ELEVATION OF 1ST LAYER
      ANAME='TOP ELEV. OF 1ST LAYER'
      CALL RARRAY(HTOP,ANAME,NROW,NCOL,0,IN,IOUT)
C
C--CALL RARRAY TO READ IN THICKNESS ONE LAYER AT A TIME
      ANAME='CELL THICKNESS (DZ)'
      DO K=1,NLAY
        CALL RARRAY(DZ(1,1,K),ANAME,NROW,NCOL,K,IN,IOUT)
      ENDDO
C
C--CHECK WHETHER VERTICAL DISCRTIZATION IS HORIZONTAL
      UNIDZ=UNIFOR(HTOP,NCOL,NROW,1)
     & .AND.UNIFOR(DZ,NCOL,NROW,NLAY)
C
C--CALL RARRAY TO READ IN POROSITY ONE LAYER AT A TIME
      ANAME='POROSITY'
      DO K=1,NLAY
        CALL RARRAY(PRSITY(1,1,K),ANAME,NROW,NCOL,K,IN,IOUT)
      ENDDO
C
C--CALL IARRAY TO READ IN CONCENTRATION BOUNDARY ARRAY
      ANAME='CONCN. BOUNDARY ARRAY'
      DO K=1,NLAY
        CALL IARRAY(ICBUND(1,1,K,1),ANAME,NROW,NCOL,K,IN,IOUT)
      ENDDO
C
C--CALL RARRAY TO READ IN INITIAL CONCENTRATION
      ANAME='INITIAL CONC.: COMP. NO.'
      DO INDEX=1,NCOMP
        WRITE(ANAME(22:24),'(I3.2)') INDEX
        DO K=1,NLAY
          CALL RARRAY(COLD(1,1,K,INDEX),ANAME,NROW,NCOL,K,IN,IOUT)
        ENDDO
      ENDDO
C
C--READ AND ECHO CINACT,THKMIN
      READ(IN,'(2F10.0)',ERR=50,IOSTAT=IERR) CINACT,THKMIN
      IF(THKMIN.LT.0) THKMIN=0.
   50 IF(IERR.NE.0) THEN
        BACKSPACE (IN)
        READ(IN,'(F10.0)') CINACT
        THKMIN=0.
      ENDIF
      WRITE(IOUT,1020) CINACT,THKMIN
      IF(THKMIN.GT.0.05) THEN
        WRITE(IOUT,1022)
        THKMIN=0.01
      ENDIF
 1020 FORMAT(/1X,'VALUE INDICATING INACTIVE CONCENTRATION CELLS = ',
     & G15.7/1X,'MINIMUM SATURATED THICKNESS [THKMIN] ',
     & 'ALLOWED =',F8.4,' OF TOTAL CELL THICKNESS')
 1022 FORMAT(1X,'WARNING: [THKMIN] MUST BE < OR = 0.05;',
     & /10X,'RESET TO DEFAULT OF 0.01 OR 1% OF TOTAL CELL THICKNESS')
C
C--READ AND ECHO OUTPUT CONTROL OPTIONS
      READ(IN,'(4I10,L10)') IFMTCN,IFMTNP,IFMTRF,IFMTDP,SAVUCN
      SAVCBM=.FALSE.
      WRITE(IOUT,1025)
C
      IF(IFMTCN.NE.0) WRITE(IOUT,1030) IFMTCN
      IF(IFMTCN.EQ.0) WRITE(IOUT,1032)
 1025 FORMAT(//1X,'OUTPUT CONTROL OPTIONS'/1X,22('-'))
 1030 FORMAT(/1X,'PRINT CELL CONCENTRATION USING FORMAT CODE:',I5)
 1032 FORMAT(/1X,'DO NOT PRINT CELL CONCENTRATION')
C
      IF(IFMTNP.NE.0) WRITE(IOUT,1034) IFMTNP
      IF(IFMTNP.EQ.0) WRITE(IOUT,1036)
 1034 FORMAT(1X,'PRINT PARTICLE NUMBER IN EACH CELL',
     &          ' USING FORMAT CODE:',I5)
 1036 FORMAT(1X,'DO NOT PRINT PARTICLE NUMBER IN EACH CELL')
C
      IF(IFMTNP.NE.0) WRITE(IOUT,1038) IFMTRF
      IF(IFMTNP.EQ.0) WRITE(IOUT,1040)
 1038 FORMAT(1X,'PRINT RETARDATION FACTOR USING FORMAT CODE:',I5)
 1040 FORMAT(1X,'DO NOT PRINT RETARDATION FACTOR')
C
      IF(IFMTDP.NE.0) WRITE(IOUT,1042) IFMTDP
      IF(IFMTDP.EQ.0) WRITE(IOUT,1044)
 1042 FORMAT(1X,'PRINT DISPERSION COEFFICIENT USING FORMAT CODE:',I5)
 1044 FORMAT(1X,'DO NOT PRINT DISPERSION COEFFICIENT')
C
      IF(SAVUCN) THEN
        WRITE(IOUT,1046) IUCN+1
        FLNAME='MT3Dnnn.UCN'
        DO INDEX=1,NCOMP
          WRITE(FLNAME(5:7),'(I3.3)') INDEX
          CALL OPENFL(-(IUCN+INDEX),0,FLNAME,1,FINDEX)
        ENDDO
        IF(ISOTHM.GT.0) THEN
          WRITE(IOUT,2046) IUCN2+1
          FLNAME='MT3DnnnS.UCN'
          DO INDEX=1,NCOMP
            WRITE(FLNAME(5:7),'(I3.3)') INDEX
            CALL OPENFL(-(IUCN2+INDEX),0,FLNAME,1,FINDEX)
          ENDDO
        ENDIF
      ELSE
        WRITE(IOUT,1047)
      ENDIF
 1046 FORMAT(1X,'SAVE DISSOLVED PHASE CONCENTRATIONS ',
     & 'IN UNFORMATTED FILES [MT3Dnnn.UCN]'/1X,' FOR EACH SPECIES ',
     & 'ON UNITS ',I3,' AND ABOVE')
 2046 FORMAT(1X,'SAVE SORBED/IMMOBILE PHASE CONCENTRATIONS ',
     & 'IN UNFORMATTED FILES [MT3DnnnS.UCN]'/1X,' FOR EACH SPECIES ',
     & 'ON UNITS ',I3,' AND ABOVE, ',
     & 'IF SORPTION/MASS TRANSFER SIMULATED')
 1047 FORMAT(1X,'DO NOT SAVE CONCENTRATIONS IN UNFORMATTED FILES')
C
C--READ NUMBER OF TIMES AT WHICH SIMULATION RESULTS SHOULD BE SAVED
C--IN STANDARD OUTPUT FILE OR RECORDED IN UNFORMATTED FILE
      READ(IN,'(I10)') NPRS
      IF(NPRS.LT.0) THEN
        WRITE(IOUT,1050) -NPRS
      ELSE
        WRITE(IOUT,1052) NPRS
      ENDIF
      IF(NPRS.GT.MXPRS) THEN
        WRITE(*,1054) MXPRS
        CALL USTOP(' ')
      ENDIF
      IF(NPRS.GT.0) THEN
        READ(IN,'(8F10.0)') (TIMPRS(I),I=1,NPRS)
C
C--MAKE SURE ELEMENTS IN ARRAY [TIMPRS] ARE MONOTONICALLY INCREASING
        DO I=1,NPRS-1
          DO IP1=I+1,NPRS
            IF(TIMPRS(I).GT.TIMPRS(IP1)) THEN
              TEMP=TIMPRS(I)
              TIMPRS(I)=TIMPRS(IP1)
              TIMPRS(IP1)=TEMP
            ENDIF
          ENDDO
        ENDDO
        WRITE(IOUT,1055) (TIMPRS(I),I=1,NPRS)
      ENDIF
 1050 FORMAT(/1X,'SIMULATION RESULTS ARE SAVED EVERY ',I3,
     & ' TRANSPORT STEP(S)')
 1052 FORMAT(/1X,'NUMBER OF TIMES AT WHICH SIMULATION RESULTS',
     &' ARE SAVED =',I5)
 1054 FORMAT(/1X,'ERROR: MAXIMUM NUMBER OF TIMES AT WHICH',
     & ' SIMULATION RESULTS CAN BE SAVED IS',I5,
     & /1X,'INCREASE DIMENSION OF [MXPRS] IN THE MAIN PROGRAM')
 1055 FORMAT(1X,'TOTAL ELAPSED TIMES AT WHICH SIMULATION RESULTS ',
     & 'ARE SAVED: ',100(/1X,8G13.5))
C
C--READ NUMBER OF OBSERVATION POINTS
      READ(IN,'(2I10)',ERR=100,IOSTAT=IERR) NOBS,NPROBS
      IF(NPROBS.LT.1) NPROBS=1
  100 IF(IERR.NE.0) THEN
        BACKSPACE (IN)
        READ(IN,'(I10)') NOBS
        NPROBS=1
      ENDIF
      WRITE(IOUT,1056) NOBS
      IF(NOBS.GT.MXOBS) THEN
        WRITE(*,1058) MXOBS
        CALL USTOP(' ')
      ENDIF
      IF(NOBS.GT.0) THEN
        WRITE(IOUT,1062) IOBS+1,NPROBS
        WRITE(IOUT,1060)
        DO N=1,NOBS
          READ(IN,'(3I10)') (LOCOBS(I,N),I=1,3)
          WRITE(IOUT,'(I4,4X,3(I5,2X))') N,(LOCOBS(I,N),I=1,3)
        ENDDO
        FLNAME='MT3Dnnn.OBS'
        DO INDEX=1,NCOMP
          WRITE(FLNAME(5:7),'(I3.3)') INDEX
          CALL OPENFL(IOBS+INDEX,0,FLNAME,1,FINDEX)
          WRITE(IOBS+INDEX,1063) ((LOCOBS(I,N),I=1,3),N=1,NOBS)
        ENDDO
      ENDIF
 1056 FORMAT(/1X,'NUMBER OF OBSERVATION POINTS =',I5)
 1058 FORMAT(/1X,'ERROR: MAXIMUM NUMBER OF OBSERVATION POINTS IS',I5,
     & /1X,'INCREASE DIMENSION OF [MXOBS] IN THE MAIN PROGRAM')
 1060 FORMAT(1X,'LOCATION OF OBSERVATION POINTS'/1X,30('.')
     &      /1X,'NUMBER  LAYER   ROW   COLUMN')
 1062 FORMAT(1X,'SAVE CONCENTRATIONS AT OBSERVATION POINTS IN FILES ',
     & '[MT3Dnnn.OBS]'/1X,' FOR EACH SPECIES ',
     & 'ON UNITS ',I3,' AND ABOVE, EVERY',I3,' TRANSPORT STEPS')
 1063 FORMAT(1X,' STEP   TOTAL TIME',
     & '             LOCATION OF OBSERVATION POINTS (K,I,J)'
     & /1X,17X,16(1X,3I4,1X)/(1X,17X,16(1X,3I4,1X)))
C
C--READ AND ECHO LOGICAL FLAG CHKMAS
      READ(IN,'(L10,I10)',ERR=105,IOSTAT=IERR) CHKMAS,NPRMAS
      IF(NPRMAS.LT.1) NPRMAS=1
  105 IF(IERR.NE.0) THEN
        BACKSPACE (IN)
        READ(IN,'(L10)') CHKMAS
        NPRMAS=1
      ENDIF
      IF(CHKMAS) THEN
        WRITE(IOUT,1064) IMAS+1,NPRMAS
        FLNAME='MT3Dnnn.MAS'
        DO INDEX=1,NCOMP
          WRITE(FLNAME(5:7),'(I3.3)') INDEX
          CALL OPENFL(IMAS+INDEX,0,FLNAME,1,FINDEX)
          WRITE(IMAS+INDEX,1066)
          WRITE(IMAS+INDEX,1068) TUNIT,MUNIT,MUNIT,MUNIT,MUNIT
        ENDDO
      ELSE
        WRITE(IOUT,1065)
      ENDIF
 1064 FORMAT(/1X,'SAVE ONE-LINE SUMMARY OF MASS BUDGETS IN FILES ',
     & '[MT3Dnnn.MAS]'/1X,' FOR EACH SPECIES ',
     & 'ON UNITS ',I3,' AND ABOVE, EVERY',I3,' TRANSPORT STEPS')
 1065 FORMAT(/1X,'DO NOT SAVE ONE-LINE SUMMARY OF MASS BUDGETS')
 1066 FORMAT(1X,'     TIME       TOTAL IN      TOTAL OUT      SOURCES',
     & '        SINKS      NET MASS FROM  TOTAL MASS',
     & '        DISCREPANCY(%)')
 1068 FORMAT(1X,5(4X,'(',A4,')',4X),
     & ' FLUID-STORAGE  IN AQUIFER  (TOTAL IN-OUT)  (ALTERNATIVE)')
C
C--SAVE MODEL GRID CONFIGURATION IN FILE [MT3D.CNF]
C--FOR USE WITH UNFORMATTED CONCENTRATION FILE BY POST-PROCESSOR
      IF(SAVUCN) THEN
        CDRY=CINACT
        FLNAME='MT3D.CNF'
        CALL OPENFL(ICNF,0,FLNAME,1,FINDEX)
        WRITE(ICNF,*) NLAY,NROW,NCOL
        WRITE(ICNF,*) (DELR(J),J=1,NCOL)
        WRITE(ICNF,*) (DELC(I),I=1,NROW)
        WRITE(ICNF,*) ((HTOP(J,I),J=1,NCOL),I=1,NROW)
        WRITE(ICNF,*) (((DZ(J,I,K),J=1,NCOL),I=1,NROW),K=1,NLAY)
        WRITE(ICNF,*) CINACT,CDRY
        CLOSE(ICNF)
      ENDIF
C
C--PROCESS INPUT DATA
C  ==================
C
C--ASSIGN SHARED ICBUND ARRAY TO ALL SPECIES

      DO INDEX=2,NCOMP
        DO K=1,NLAY
          DO I=1,NROW
            DO J=1,NCOL
              ICBUND(J,I,K,INDEX)=ICBUND(J,I,K,1)
            ENDDO
          ENDDO
        ENDDO
      ENDDO
C
C--ASSIGN CINACT TO INACTIVE CELLS AND COPY COLD TO CNEW
      DO INDEX=1,NCOMP
        DO K=1,NLAY
          DO I=1,NROW
            DO J=1,NCOL
              IF(ICBUND(J,I,K,INDEX).EQ.0) COLD(J,I,K,INDEX)=CINACT
              CNEW(J,I,K,INDEX)=COLD(J,I,K,INDEX)
              CADV(J,I,K,INDEX)=COLD(J,I,K,INDEX)
            ENDDO
          ENDDO
        ENDDO
      ENDDO
C
C--SET PRSITY=0 IN CELLS WHERE ICBUND=0
C--AND ENSURE ICBUND=0 IF POROSITY IS ZERO
      DO K=1,NLAY
        DO I=1,NROW
          DO J=1,NCOL
            IF(ICBUND(J,I,K,1).EQ.0) THEN
              PRSITY(J,I,K)=0
            ELSEIF(PRSITY(J,I,K).EQ.0) THEN
              DO INDEX=1,NCOMP
                ICBUND(J,I,K,INDEX)=0
              ENDDO
            ENDIF
          ENDDO
        ENDDO
      ENDDO
C
C--CALCULATE COORDINATE ARRAYS XBC, YBC AND ZBC
C--AND MAXIMUN WIDTHS ALONG ROWS, COLUMNS AND LAYERS
      HORIGN=HTOP(1,1)
      XBC(1)=DELR(1)/2.
      YBC(1)=DELC(1)/2.
      DO J=2,NCOL
        XBC(J)=XBC(J-1)+(DELR(J-1)+DELR(J))/2.
      ENDDO
      DO I=2,NROW
        YBC(I)=YBC(I-1)+(DELC(I-1)+DELC(I))/2.
      ENDDO
      XMAX=XBC(NCOL)+DELR(NCOL)/2.
      YMAX=YBC(NROW)+DELC(NROW)/2.
      ZMAX=0
      DO I=1,NROW
        DO J=1,NCOL
          ZBC(J,I,1)=DZ(J,I,1)/2.+(HORIGN-HTOP(J,I))
          ZZ=DZ(J,I,1)
          DO K=2,NLAY
            ZBC(J,I,K)=ZBC(J,I,K-1)+(DZ(J,I,K-1)+DZ(J,I,K))/2.
            ZZ=ZZ+DZ(J,I,K)
          ENDDO
          ZMAX=MAX(ZMAX,ZZ)
        ENDDO
      ENDDO
      WRITE(IOUT,1300) XMAX,YMAX,ZMAX
 1300 FORMAT(/1X,'MAXIMUM LENGTH ALONG THE X (J) AXIS =',G15.7,
     &       /1X,'MAXIMUM LENGTH ALONG THE Y (I) AXIS =',G15.7,
     &       /1X,'MAXIMUM LENGTH ALONG THE Z (K) AXIS =',G15.7)
C
C--INITIALIZE RETARDATION FACTOR ARRAY AND THE MINUMIN
      DO INDEX=1,NCOMP
        DO K=1,NLAY
          DO I=1,NROW
            DO J=1,NCOL
              RETA(J,I,K,INDEX)=1.
            ENDDO
          ENDDO
        ENDDO
      ENDDO
      RFMIN=1.
C
C--RETURN
      RETURN
      END
C
C
      SUBROUTINE BTN5ST(IN,IOUT,NSTP,MXSTP,TSLNGH,DT0,MXSTRN,
     & TTSMULT,TTSMAX,TUNIT,iSSTrans)
C *****************************************************************
C THIS SUBROUTINE GETS TIMING INFORMATION FOR EACH STRESS PERIOD.
C *****************************************************************
C last modified: 02-20-2010
C
      IMPLICIT  NONE
      INTEGER   IN,IOUT,NSTP,MXSTRN,N,MXSTP,
     &          iSSTrans,LLOC,inam1,inam2,itmp
      REAL      TSLNGH,DT0,PERLEN,TSMULT,TTSMULT,TTSMAX,EPSILON,R
      CHARACTER TUNIT*4,Line*200
      DIMENSION TSLNGH(MXSTP)
      PARAMETER (EPSILON=0.5E-6)
C
C--READ AND PRINT OUT TIMING INFORMATION
      READ(IN,'(F10.0,I10,F10.0)') PERLEN,NSTP,TSMULT
      WRITE(IOUT,22) PERLEN,NSTP,TSMULT
C
C--Read an optional flag for steady-state transport simulation
      backspace (in)
      read(in,'(a)') Line
      LLOC=31
      CALL URWORD(Line,LLOC,inam1,inam2,1,ITMP,R,IOUT,IN)
      if(Line(inam1:inam2).eq.'SSTATE') then
        iSSTrans=1
        write(iout,23)
      else
        iSSTrans=0
        write(iout,24)
      endif            
C            
   22 FORMAT(/1X,'LENGTH OF CURRENT STRESS PERIOD =',G15.7,
     & /1X,'NUMBER OF TIME STEPS FOR CURRENT STRESS PERIOD =',I5,
     & /1X,'TIME STEP MULTIPLIER USED IN FLOW SOLUTION =',G15.7)
   23 FORMAT(/1X,'***Type of Transport Simulation is STEADY-STATE'/)
   24 FORMAT(/1X,'***Type of Transport Simulation is TRANSIENT'/)    
C   
      IF(NSTP.GT.MXSTP) THEN
        WRITE(*,25)
   25   FORMAT(/1X,'ERROR: MAXIMUM NUMBER OF TIME STEPS EXCEEDED!',
     &   /1X,'INCREASE DIMENSION OF [MXSTP] IN THE MAIN PROGRAM.')
        CALL USTOP(' ')
      ENDIF
C
C--IF [TSMULT] IS A NUMBER GREATER THAN ZERO, THE LENGTH OF
C--EACH TIME STEP FOR CURRENT STRESS PERIOD IS CALCULATED BY
C--PROGRAM USING THE GEOMETRIC PROGRESSION.
C--IF TSMULT IS A NUMBER LESS THAN OR EQUAL TO ZERO,
C--READ IN SPECIFIED LENGTH OF EACH TIME STEP.
      IF(TSMULT.LE.0) THEN
        READ(IN,'(8F10.0)') (TSLNGH(N),N=1,NSTP)
        WRITE(IOUT,30) (TSLNGH(N),N=1,NSTP)
   30   FORMAT(1X,'SPECIFIED LENGTH OF EACH TIME STEP:',/1X,8G15.7)
        GOTO 50
      ELSEIF(ABS(TSMULT-1.).LT.ABS(TSMULT+1.)*EPSILON) THEN
        TSLNGH(1)=PERLEN/FLOAT(NSTP)
      ELSE
        TSLNGH(1)=PERLEN*(1.-TSMULT)/(1.-TSMULT**NSTP)
      ENDIF
      DO N=2,NSTP
        TSLNGH(N)=TSLNGH(N-1)*TSMULT
      ENDDO
C
   50 CONTINUE
C
C--READ INITIAL TRANSPORT STEPSIZE AND MAXIMUM NUMBER OF STEPS
      TTSMULT=1.0
      TTSMAX=0.0
      READ(IN,'(F10.0,I10,2F10.0)',ERR=100) DT0,MXSTRN,TTSMULT,TTSMAX
      GOTO 101
  100 BACKSPACE(IN)
      READ(IN,'(F10.0,I10)') DT0,MXSTRN
  101 IF(TTSMULT.LT.1.0) TTSMULT=1.0
      WRITE(IOUT,51) DT0,TUNIT,MXSTRN,TTSMULT,TTSMAX,TUNIT
   51 FORMAT(1X,'USER-SPECIFIED TRANSPORT STEPSIZE =',G15.7,A4
     & /1X,'MAXIMUM NUMBER OF TRANSPORT STEPS ALLOWED ',
     & ' IN ONE FLOW TIME STEP =',I10,
     & /1X,'MULTIPLIER FOR SUCCESSIVE TRANSPORT STEPS ',
     & ' [USED IN IMPLICIT SCHEMES] =',F10.3,
     & /1X,'MAXIMUM TRANSPORT STEP SIZE ',
     & ' [USED IN IMPLICIT SCHEMES] =',G15.7,A4)
C
      IF(DT0.LT.0) WRITE(*,55)
   55 FORMAT(/1X,'NEGATIVE VALUE FOR INPUT VARIABLE [DT0] DETECTED; ',
     & /1X,'MODEL-CALCULATED TRANSPORT STEPSIZE REPLACED WITH [-DT0]',
     & /1X,'REGARDLESS OF STABILITY CONSTRAINTS FOR EXPLICIT SCHEMES',
     & /1X,'OR TRANSPORT STEP MULTIPLIER FOR IMPLICIT SCHEMES.')
C
      RETURN
      END
C
C
      SUBROUTINE BTN5AD(IOUT,NTRANS,MXTRNOP,iUnitTRNOP,iSSTrans,
     & TIME1,TIME2,HT2,DELT,KSTP,NSTP,MXPRS,TIMPRS,DT0,MXSTRN,MIXELM,
     & DTRACK,DTRACK2,PERCEL,DTDISP,DTSSM,DTRCT,RFMIN,NPRS,NPS,DTRANS,
     & PRTOUT,NCOL,NROW,NLAY,NCOMP,ICBUND,CNEW,COLD,CINACT,UPDLHS,
     & IMPSOL,TTSMULT,TTSMAX,KPER,DELR,DELC,DH,PRSITY,SRCONC,RHOB,
     & RETA,PRSITY2,RETA2,ISOTHM,TMASIO,RMASIO,TMASS)
C **********************************************************************
C THIS SUBROUTINE ADVANCES THE TRANSPORT SIMULATION ONE STEP,
C DETERMINING THE STEPSIZE TO BE USED AND WHETHER PRINTOUT IS REQUIRED
C FOR NEXT TRANSPORT STEP. IT ALSO COMPUTES TOTAL MASS IN THE AQUIFER
C AT THE FIRST TRANSPORT STEP OF EACH TRANSPORT LOOP.
C **********************************************************************
C last modified: 02-20-2010
C
      IMPLICIT  NONE
      INTEGER   NTRANS,KSTP,NSTP,NPS,NPRS,MXPRS,MXSTRN,MIXELM,INDEX,
     &          ICBUND,K,I,J,NCOL,NROW,NLAY,NCOMP,IMPSOL,KPER,ISOTHM,
     &          MXTRNOP,iUnitTRNOP,iSSTrans,IOUT
      REAL      TIME1,TIME2,DT0,DTRACK,DTRACK2,PERCEL,DTRANS,DTDISP,
     &          HT2,TIMPRS,DTSSM,DTRCT,DELT,RFMIN,CNEW,COLD,CINACT,
     &          TMASIO,RMASIO,TMASS,DTOLD,TTSMULT,DELR,DELC,DH,
     &          PRSITY,PRSITY2,RETA2,CMML,CMMS,CIML,CIMS,
     &          SRCONC,RHOB,RETA,VOLUME,TTSMAX,EPSILON,TEMP,TTMP
      DIMENSION iUnitTRNOP(MXTRNOP),ICBUND(NCOL,NROW,NLAY,NCOMP),
     &          CNEW(NCOL,NROW,NLAY,NCOMP),COLD(NCOL,NROW,NLAY,NCOMP),