# MODFLOW2000 Basic Package
#MODFLOW Data Set Created by Groundwater Vistas

INTERNAL 1 (free) -1                                                  #IBOUND Layer 1 Elevation
 -1  1  1  1  1  0
INTERNAL 1 (free) -1                                                  #IBOUND Layer 2 Elevation
 -1  1  1  1  1 -1
-999.00
INTERNAL 1 (free) -1                                                  #STARTING HEADS Layer 1
  1.5000e+01  1.1000e+01  1.1000e+01  1.1000e+01  1.1000e+01  2.0000e+00
INTERNAL 1 (free) -1                                                  #STARTING HEADS Layer 2
  1.5000e+01  1.1000e+01  1.1000e+01  1.1000e+01  1.1000e+01  2.0000e+00

