1D Transport problem using example from Vanderborght et al. (2005), modified for UZF/MT3D-USGS link-up
"A set of analytical benchmarks to test numerical models of flow and transport in soils"
       210         1        3         61         1         1  !NLAY,NROW,NCOL,NPER,NCOMP,MCOMP
sec cm  mg                                                    !TUNIT,LUNIT,MUNIT
T T T F T F F F F F                                           !TRNOP: ADV,DSP,SSM,RCT,GCG...
1 1 1 1 1 1 1 1 1 1 1 1 1 1 1 1 1 1 1 1 1 1 1 1 1 1 1 1 1 1 1 1 1 1 1 1 1 1 1 1
1 1 1 1 1 1 1 1 1 1 1 1 1 1 1 1 1 1 1 1 1 1 1 1 1 1 1 1 1 1 1 1 1 1 1 1 1 1 1 1
1 1 1 1 1 1 1 1 1 1 1 1 1 1 1 1 1 1 1 1 1 1 1 1 1 1 1 1 1 1 1 1 1 1 1 1 1 1 1 1
1 1 1 1 1 1 1 1 1 1 1 1 1 1 1 1 1 1 1 1 1 1 1 1 1 1 1 1 1 1 1 1 1 1 1 1 1 1 1 1
1 1 1 1 1 1 1 1 1 1 1 1 1 1 1 1 1 1 1 1 1 1 1 1 1 1 1 1 1 1 1 1 1 1 1 1 1 1 1 1
1 1 1 1 1 1 1 1 1 1 !LAYCON(NLAY)
         0 1.000E+00                                          !DELR
         0 1.000E+00                                          !DELC
       100  1.00E+00            (3f5.0)         1            !HTOP
200  200  200
       100  1.00E+00            (3f3.0)         1            !DZ Lay1
1  1  1
       100  1.00E+00            (3f3.0)         1            !DZ Lay2
1  1  1
       100  1.00E+00            (3f3.0)         1            !DZ Lay3
1  1  1
       100  1.00E+00            (3f3.0)         1            !DZ Lay4
1  1  1
       100  1.00E+00            (3f3.0)         1            !DZ Lay5
1  1  1
       100  1.00E+00            (3f3.0)         1            !DZ Lay6
1  1  1
       100  1.00E+00            (3f3.0)         1            !DZ Lay7
1  1  1
       100  1.00E+00            (3f3.0)         1            !DZ Lay8
1  1  1
       100  1.00E+00            (3f3.0)         1            !DZ Lay9
1  1  1
       100  1.00E+00            (3f3.0)         1            !DZ Lay10
1  1  1
       100  1.00E+00            (3f3.0)         1            !DZ Lay11
1  1  1
       100  1.00E+00            (3f3.0)         1            !DZ Lay12
1  1  1
       100  1.00E+00            (3f3.0)         1            !DZ Lay13
1  1  1
       100  1.00E+00            (3f3.0)         1            !DZ Lay14
1  1  1
       100  1.00E+00            (3f3.0)         1            !DZ Lay15
1  1  1
       100  1.00E+00            (3f3.0)         1            !DZ Lay16
1  1  1
       100  1.00E+00            (3f3.0)         1            !DZ Lay17
1  1  1
       100  1.00E+00            (3f3.0)         1            !DZ Lay18
1  1  1
       100  1.00E+00            (3f3.0)         1            !DZ Lay19
1  1  1
       100  1.00E+00            (3f3.0)         1            !DZ Lay20
1  1  1
       100  1.00E+00            (3f3.0)         1            !DZ Lay21
1  1  1
       100  1.00E+00            (3f3.0)         1            !DZ Lay22
1  1  1
       100  1.00E+00            (3f3.0)         1            !DZ Lay23
1  1  1
       100  1.00E+00            (3f3.0)         1            !DZ Lay24
1  1  1
       100  1.00E+00            (3f3.0)         1            !DZ Lay25
1  1  1
       100  1.00E+00            (3f3.0)         1            !DZ Lay26
1  1  1
       100  1.00E+00            (3f3.0)         1            !DZ Lay27
1  1  1
       100  1.00E+00            (3f3.0)         1            !DZ Lay28
1  1  1
       100  1.00E+00            (3f3.0)         1            !DZ Lay29
1  1  1
       100  1.00E+00            (3f3.0)         1            !DZ Lay30
1  1  1
       100  1.00E+00            (3f3.0)         1            !DZ Lay31
1  1  1
       100  1.00E+00            (3f3.0)         1            !DZ Lay32
1  1  1
       100  1.00E+00            (3f3.0)         1            !DZ Lay33
1  1  1
       100  1.00E+00            (3f3.0)         1            !DZ Lay34
1  1  1
       100  1.00E+00            (3f3.0)         1            !DZ Lay35
1  1  1
       100  1.00E+00            (3f3.0)         1            !DZ Lay36
1  1  1
       100  1.00E+00            (3f3.0)         1            !DZ Lay37
1  1  1
       100  1.00E+00            (3f3.0)         1            !DZ Lay38
1  1  1
       100  1.00E+00            (3f3.0)         1            !DZ Lay39
1  1  1
       100  1.00E+00            (3f3.0)         1            !DZ Lay40
1  1  1
       100  1.00E+00            (3f3.0)         1            !DZ Lay41
1  1  1
       100  1.00E+00            (3f3.0)         1            !DZ Lay42
1  1  1
       100  1.00E+00            (3f3.0)         1            !DZ Lay43
1  1  1
       100  1.00E+00            (3f3.0)         1            !DZ Lay44
1  1  1
       100  1.00E+00            (3f3.0)         1            !DZ Lay45
1  1  1
       100  1.00E+00            (3f3.0)         1            !DZ Lay46
1  1  1
       100  1.00E+00            (3f3.0)         1            !DZ Lay47
1  1  1
       100  1.00E+00            (3f3.0)         1            !DZ Lay48
1  1  1
       100  1.00E+00            (3f3.0)         1            !DZ Lay49
1  1  1
       100  1.00E+00            (3f3.0)         1            !DZ Lay50
1  1  1
       100  1.00E+00            (3f3.0)         1            !DZ Lay51
1  1  1
       100  1.00E+00            (3f3.0)         1            !DZ Lay52
1  1  1
       100  1.00E+00            (3f3.0)         1            !DZ Lay53
1  1  1
       100  1.00E+00            (3f3.0)         1            !DZ Lay54
1  1  1
       100  1.00E+00            (3f3.0)         1            !DZ Lay55
1  1  1
       100  1.00E+00            (3f3.0)         1            !DZ Lay56
1  1  1
       100  1.00E+00            (3f3.0)         1            !DZ Lay57
1  1  1
       100  1.00E+00            (3f3.0)         1            !DZ Lay58
1  1  1
       100  1.00E+00            (3f3.0)         1            !DZ Lay59
1  1  1
       100  1.00E+00            (3f3.0)         1            !DZ Lay60
1  1  1
       100  1.00E+00            (3f3.0)         1            !DZ Lay61
1  1  1
       100  1.00E+00            (3f3.0)         1            !DZ Lay62
1  1  1
       100  1.00E+00            (3f3.0)         1            !DZ Lay63
1  1  1
       100  1.00E+00            (3f3.0)         1            !DZ Lay64
1  1  1
       100  1.00E+00            (3f3.0)         1            !DZ Lay65
1  1  1
       100  1.00E+00            (3f3.0)         1            !DZ Lay66
1  1  1
       100  1.00E+00            (3f3.0)         1            !DZ Lay67
1  1  1
       100  1.00E+00            (3f3.0)         1            !DZ Lay68
1  1  1
       100  1.00E+00            (3f3.0)         1            !DZ Lay69
1  1  1
       100  1.00E+00            (3f3.0)         1            !DZ Lay70
1  1  1
       100  1.00E+00            (3f3.0)         1            !DZ Lay71
1  1  1
       100  1.00E+00            (3f3.0)         1            !DZ Lay72
1  1  1
       100  1.00E+00            (3f3.0)         1            !DZ Lay73
1  1  1
       100  1.00E+00            (3f3.0)         1            !DZ Lay74
1  1  1
       100  1.00E+00            (3f3.0)         1            !DZ Lay75
1  1  1
       100  1.00E+00            (3f3.0)         1            !DZ Lay76
1  1  1
       100  1.00E+00            (3f3.0)         1            !DZ Lay77
1  1  1
       100  1.00E+00            (3f3.0)         1            !DZ Lay78
1  1  1
       100  1.00E+00            (3f3.0)         1            !DZ Lay79
1  1  1
       100  1.00E+00            (3f3.0)         1            !DZ Lay80
1  1  1
       100  1.00E+00            (3f3.0)         1            !DZ Lay81
1  1  1
       100  1.00E+00            (3f3.0)         1            !DZ Lay82
1  1  1
       100  1.00E+00            (3f3.0)         1            !DZ Lay83
1  1  1
       100  1.00E+00            (3f3.0)         1            !DZ Lay84
1  1  1
       100  1.00E+00            (3f3.0)         1            !DZ Lay85
1  1  1
       100  1.00E+00            (3f3.0)         1            !DZ Lay86
1  1  1
       100  1.00E+00            (3f3.0)         1            !DZ Lay87
1  1  1
       100  1.00E+00            (3f3.0)         1            !DZ Lay88
1  1  1
       100  1.00E+00            (3f3.0)         1            !DZ Lay89
1  1  1
       100  1.00E+00            (3f3.0)         1            !DZ Lay90
1  1  1
       100  1.00E+00            (3f3.0)         1            !DZ Lay91
1  1  1
       100  1.00E+00            (3f3.0)         1            !DZ Lay92
1  1  1
       100  1.00E+00            (3f3.0)         1            !DZ Lay93
1  1  1
       100  1.00E+00            (3f3.0)         1            !DZ Lay94
1  1  1
       100  1.00E+00            (3f3.0)         1            !DZ Lay95
1  1  1
       100  1.00E+00            (3f3.0)         1            !DZ Lay96
1  1  1
       100  1.00E+00            (3f3.0)         1            !DZ Lay97
1  1  1
       100  1.00E+00            (3f3.0)         1            !DZ Lay98
1  1  1
       100  1.00E+00            (3f3.0)         1            !DZ Lay99
1  1  1
       100  1.00E+00            (3f3.0)         1            !DZ Lay100
1  1  1
       100  1.00E+00            (3f3.0)         1            !DZ Lay101
1  1  1
       100  1.00E+00            (3f3.0)         1            !DZ Lay102
1  1  1
       100  1.00E+00            (3f3.0)         1            !DZ Lay103
1  1  1
       100  1.00E+00            (3f3.0)         1            !DZ Lay104
1  1  1
       100  1.00E+00            (3f3.0)         1            !DZ Lay105
1  1  1
       100  1.00E+00            (3f3.0)         1            !DZ Lay106
1  1  1
       100  1.00E+00            (3f3.0)         1            !DZ Lay107
1  1  1
       100  1.00E+00            (3f3.0)         1            !DZ Lay108
1  1  1
       100  1.00E+00            (3f3.0)         1            !DZ Lay109
1  1  1
       100  1.00E+00            (3f3.0)         1            !DZ Lay100
1  1  1
       100  1.00E+00            (3f3.0)         1            !DZ Lay111
1  1  1
       100  1.00E+00            (3f3.0)         1            !DZ Lay112
1  1  1
       100  1.00E+00            (3f3.0)         1            !DZ Lay113
1  1  1
       100  1.00E+00            (3f3.0)         1            !DZ Lay114
1  1  1
       100  1.00E+00            (3f3.0)         1            !DZ Lay115
1  1  1
       100  1.00E+00            (3f3.0)         1            !DZ Lay116
1  1  1
       100  1.00E+00            (3f3.0)         1            !DZ Lay117
1  1  1
       100  1.00E+00            (3f3.0)         1            !DZ Lay118
1  1  1
       100  1.00E+00            (3f3.0)         1            !DZ Lay119
1  1  1
       100  1.00E+00            (3f3.0)         1            !DZ Lay120
1  1  1
       100  1.00E+00            (3f3.0)         1            !DZ Lay121
1  1  1
       100  1.00E+00            (3f3.0)         1            !DZ Lay122
1  1  1
       100  1.00E+00            (3f3.0)         1            !DZ Lay123
1  1  1
       100  1.00E+00            (3f3.0)         1            !DZ Lay124
1  1  1
       100  1.00E+00            (3f3.0)         1            !DZ Lay125
1  1  1
       100  1.00E+00            (3f3.0)         1            !DZ Lay126
1  1  1
       100  1.00E+00            (3f3.0)         1            !DZ Lay127
1  1  1
       100  1.00E+00            (3f3.0)         1            !DZ Lay128
1  1  1
       100  1.00E+00            (3f3.0)         1            !DZ Lay129
1  1  1
       100  1.00E+00            (3f3.0)         1            !DZ Lay130
1  1  1
       100  1.00E+00            (3f3.0)         1            !DZ Lay131
1  1  1
       100  1.00E+00            (3f3.0)         1            !DZ Lay132
1  1  1
       100  1.00E+00            (3f3.0)         1            !DZ Lay133
1  1  1
       100  1.00E+00            (3f3.0)         1            !DZ Lay134
1  1  1
       100  1.00E+00            (3f3.0)         1            !DZ Lay135
1  1  1
       100  1.00E+00            (3f3.0)         1            !DZ Lay136
1  1  1
       100  1.00E+00            (3f3.0)         1            !DZ Lay137
1  1  1
       100  1.00E+00            (3f3.0)         1            !DZ Lay138
1  1  1
       100  1.00E+00            (3f3.0)         1            !DZ Lay139
1  1  1
       100  1.00E+00            (3f3.0)         1            !DZ Lay140
1  1  1
       100  1.00E+00            (3f3.0)         1            !DZ Lay141
1  1  1
       100  1.00E+00            (3f3.0)         1            !DZ Lay142
1  1  1
       100  1.00E+00            (3f3.0)         1            !DZ Lay143
1  1  1
       100  1.00E+00            (3f3.0)         1            !DZ Lay144
1  1  1
       100  1.00E+00            (3f3.0)         1            !DZ Lay145
1  1  1
       100  1.00E+00            (3f3.0)         1            !DZ Lay146
1  1  1
       100  1.00E+00            (3f3.0)         1            !DZ Lay147
1  1  1
       100  1.00E+00            (3f3.0)         1            !DZ Lay148
1  1  1
       100  1.00E+00            (3f3.0)         1            !DZ Lay149
1  1  1
       100  1.00E+00            (3f3.0)         1            !DZ Lay150
1  1  1
       100  1.00E+00            (3f3.0)         1            !DZ Lay151
1  1  1
       100  1.00E+00            (3f3.0)         1            !DZ Lay152
1  1  1
       100  1.00E+00            (3f3.0)         1            !DZ Lay153
1  1  1
       100  1.00E+00            (3f3.0)         1            !DZ Lay154
1  1  1
       100  1.00E+00            (3f3.0)         1            !DZ Lay155
1  1  1
       100  1.00E+00            (3f3.0)         1            !DZ Lay156
1  1  1
       100  1.00E+00            (3f3.0)         1            !DZ Lay157
1  1  1
       100  1.00E+00            (3f3.0)         1            !DZ Lay158
1  1  1
       100  1.00E+00            (3f3.0)         1            !DZ Lay159
1  1  1
       100  1.00E+00            (3f3.0)         1            !DZ Lay160
1  1  1
       100  1.00E+00            (3f3.0)         1            !DZ Lay161
1  1  1
       100  1.00E+00            (3f3.0)         1            !DZ Lay162
1  1  1
       100  1.00E+00            (3f3.0)         1            !DZ Lay163
1  1  1
       100  1.00E+00            (3f3.0)         1            !DZ Lay164
1  1  1
       100  1.00E+00            (3f3.0)         1            !DZ Lay165
1  1  1
       100  1.00E+00            (3f3.0)         1            !DZ Lay166
1  1  1
       100  1.00E+00            (3f3.0)         1            !DZ Lay167
1  1  1
       100  1.00E+00            (3f3.0)         1            !DZ Lay168
1  1  1
       100  1.00E+00            (3f3.0)         1            !DZ Lay169
1  1  1
       100  1.00E+00            (3f3.0)         1            !DZ Lay170
1  1  1
       100  1.00E+00            (3f3.0)         1            !DZ Lay171
1  1  1
       100  1.00E+00            (3f3.0)         1            !DZ Lay172
1  1  1
       100  1.00E+00            (3f3.0)         1            !DZ Lay173
1  1  1
       100  1.00E+00            (3f3.0)         1            !DZ Lay174
1  1  1
       100  1.00E+00            (3f3.0)         1            !DZ Lay175
1  1  1
       100  1.00E+00            (3f3.0)         1            !DZ Lay176
1  1  1
       100  1.00E+00            (3f3.0)         1            !DZ Lay177
1  1  1
       100  1.00E+00            (3f3.0)         1            !DZ Lay178
1  1  1
       100  1.00E+00            (3f3.0)         1            !DZ Lay179
1  1  1
       100  1.00E+00            (3f3.0)         1            !DZ Lay180
1  1  1
       100  1.00E+00            (3f3.0)         1            !DZ Lay181
1  1  1
       100  1.00E+00            (3f3.0)         1            !DZ Lay182
1  1  1
       100  1.00E+00            (3f3.0)         1            !DZ Lay183
1  1  1
       100  1.00E+00            (3f3.0)         1            !DZ Lay184
1  1  1
       100  1.00E+00            (3f3.0)         1            !DZ Lay185
1  1  1
       100  1.00E+00            (3f3.0)         1            !DZ Lay186
1  1  1
       100  1.00E+00            (3f3.0)         1            !DZ Lay187
1  1  1
       100  1.00E+00            (3f3.0)         1            !DZ Lay188
1  1  1
       100  1.00E+00            (3f3.0)         1            !DZ Lay189
1  1  1
       100  1.00E+00            (3f3.0)         1            !DZ Lay190
1  1  1
       100  1.00E+00            (3f3.0)         1            !DZ Lay191
1  1  1
       100  1.00E+00            (3f3.0)         1            !DZ Lay192
1  1  1
       100  1.00E+00            (3f3.0)         1            !DZ Lay193
1  1  1
       100  1.00E+00            (3f3.0)         1            !DZ Lay194
1  1  1
       100  1.00E+00            (3f3.0)         1            !DZ Lay195
1  1  1
       100  1.00E+00            (3f3.0)         1            !DZ Lay196
1  1  1
       100  1.00E+00            (3f3.0)         1            !DZ Lay197
1  1  1
       100  1.00E+00            (3f3.0)         1            !DZ Lay198
1  1  1
       100  1.00E+00            (3f3.0)         1            !DZ Lay199
1  1  1
       100  1.00E+00            (3f3.0)         1            !DZ Lay200
1  1  1
       100  1.00E+00            (3f3.0)         1            !DZ Lay201
1  1  1
       100  1.00E+00            (3f3.0)         1            !DZ Lay202
1  1  1
       100  1.00E+00            (3f3.0)         1            !DZ Lay203
1  1  1
       100  1.00E+00            (3f3.0)         1            !DZ Lay204
1  1  1
       100  1.00E+00            (3f3.0)         1            !DZ Lay205
1  1  1
       100  1.00E+00            (3f3.0)         1            !DZ Lay206
1  1  1
       100  1.00E+00            (3f3.0)         1            !DZ Lay207
1  1  1
       100  1.00E+00            (3f3.0)         1            !DZ Lay208
1  1  1
       100  1.00E+00            (3f3.0)         1            !DZ Lay209
1  1  1
       100  1.00E+00            (3f3.0)         1            !DZ Lay210
1  1  1
         0 0.4300000                                          !PRSITY-LAYER 1
         0 0.4300000                                          !PRSITY-2
         0 0.4300000                                          !PRSITY-3
         0 0.4300000                                          !PRSITY-4
         0 0.4300000                                          !PRSITY-5
         0 0.4300000                                          !PRSITY-6
         0 0.4300000                                          !PRSITY-7
         0 0.4300000                                          !PRSITY-8
         0 0.4300000                                          !PRSITY-9
         0 0.4300000                                          !PRSITY-10
         0 0.4300000                                          !PRSITY-11
         0 0.4300000                                          !PRSITY-12
         0 0.4300000                                          !PRSITY-13
         0 0.4300000                                          !PRSITY-14
         0 0.4300000                                          !PRSITY-15
         0 0.4300000                                          !PRSITY-16
         0 0.4300000                                          !PRSITY-17
         0 0.4300000                                          !PRSITY-18
         0 0.4300000                                          !PRSITY-19
         0 0.4300000                                          !PRSITY-20
         0 0.4300000                                          !PRSITY-21
         0 0.4300000                                          !PRSITY-22
         0 0.4300000                                          !PRSITY-23
         0 0.4300000                                          !PRSITY-24
         0 0.4300000                                          !PRSITY-25
         0 0.4300000                                          !PRSITY-26
         0 0.4300000                                          !PRSITY-27
         0 0.4300000                                          !PRSITY-28
         0 0.4300000                                          !PRSITY-29
         0 0.4300000                                          !PRSITY-30
         0 0.4300000                                          !PRSITY-31
         0 0.4300000                                          !PRSITY-32
         0 0.4300000                                          !PRSITY-33
         0 0.4300000                                          !PRSITY-34
         0 0.4300000                                          !PRSITY-35
         0 0.4300000                                          !PRSITY-36
         0 0.4300000                                          !PRSITY-37
         0 0.4300000                                          !PRSITY-38
         0 0.4300000                                          !PRSITY-39
         0 0.4300000                                          !PRSITY-40
         0 0.4300000                                          !PRSITY-41
         0 0.4300000                                          !PRSITY-42
         0 0.4300000                                          !PRSITY-43
         0 0.4300000                                          !PRSITY-44
         0 0.4300000                                          !PRSITY-45
         0 0.4300000                                          !PRSITY-46
         0 0.4300000                                          !PRSITY-47
         0 0.4300000                                          !PRSITY-48
         0 0.4300000                                          !PRSITY-49
         0 0.4300000                                          !PRSITY-50
         0 0.4300000                                          !PRSITY-51
         0 0.4300000                                          !PRSITY-52
         0 0.4300000                                          !PRSITY-53
         0 0.4300000                                          !PRSITY-54
         0 0.4300000                                          !PRSITY-55
         0 0.4300000                                          !PRSITY-56
         0 0.4300000                                          !PRSITY-57
         0 0.4300000                                          !PRSITY-58
         0 0.4300000                                          !PRSITY-59
         0 0.4300000                                          !PRSITY-60
         0 0.4300000                                          !PRSITY-61
         0 0.4300000                                          !PRSITY-62
         0 0.4300000                                          !PRSITY-63
         0 0.4300000                                          !PRSITY-64
         0 0.4300000                                          !PRSITY-65
         0 0.4300000                                          !PRSITY-66
         0 0.4300000                                          !PRSITY-67
         0 0.4300000                                          !PRSITY-68
         0 0.4300000                                          !PRSITY-69
         0 0.4300000                                          !PRSITY-70
         0 0.4300000                                          !PRSITY-71
         0 0.4300000                                          !PRSITY-72
         0 0.4300000                                          !PRSITY-73
         0 0.4300000                                          !PRSITY-74
         0 0.4300000                                          !PRSITY-75
         0 0.4300000                                          !PRSITY-76
         0 0.4300000                                          !PRSITY-77
         0 0.4300000                                          !PRSITY-78
         0 0.4300000                                          !PRSITY-79
         0 0.4300000                                          !PRSITY-80
         0 0.4300000                                          !PRSITY-81
         0 0.4300000                                          !PRSITY-82
         0 0.4300000                                          !PRSITY-83
         0 0.4300000                                          !PRSITY-84
         0 0.4300000                                          !PRSITY-85
         0 0.4300000                                          !PRSITY-86
         0 0.4300000                                          !PRSITY-87
         0 0.4300000                                          !PRSITY-88
         0 0.4300000                                          !PRSITY-89
         0 0.4300000                                          !PRSITY-90
         0 0.4300000                                          !PRSITY-91
         0 0.4300000                                          !PRSITY-92
         0 0.4300000                                          !PRSITY-93
         0 0.4300000                                          !PRSITY-94
         0 0.4300000                                          !PRSITY-95
         0 0.4300000                                          !PRSITY-96
         0 0.4300000                                          !PRSITY-97
         0 0.4300000                                          !PRSITY-98
         0 0.4300000                                          !PRSITY-99
         0 0.4300000                                          !PRSITY-100
         0 0.4300000                                          !PRSITY-101
         0 0.4300000                                          !PRSITY-102
         0 0.4300000                                          !PRSITY-103
         0 0.4300000                                          !PRSITY-104
         0 0.4300000                                          !PRSITY-105
         0 0.4300000                                          !PRSITY-106
         0 0.4300000                                          !PRSITY-107
         0 0.4300000                                          !PRSITY-108
         0 0.4300000                                          !PRSITY-109
         0 0.4300000                                          !PRSITY-110
         0 0.4300000                                          !PRSITY-111
         0 0.4300000                                          !PRSITY-112
         0 0.4300000                                          !PRSITY-113
         0 0.4300000                                          !PRSITY-114
         0 0.4300000                                          !PRSITY-115
         0 0.4300000                                          !PRSITY-116
         0 0.4300000                                          !PRSITY-117
         0 0.4300000                                          !PRSITY-118
         0 0.4300000                                          !PRSITY-119
         0 0.4300000                                          !PRSITY-120
         0 0.4300000                                          !PRSITY-121
         0 0.4300000                                          !PRSITY-122
         0 0.4300000                                          !PRSITY-123
         0 0.4300000                                          !PRSITY-124
         0 0.4300000                                          !PRSITY-125
         0 0.4300000                                          !PRSITY-126
         0 0.4300000                                          !PRSITY-127
         0 0.4300000                                          !PRSITY-128
         0 0.4300000                                          !PRSITY-129
         0 0.4300000                                          !PRSITY-130
         0 0.4300000                                          !PRSITY-131
         0 0.4300000                                          !PRSITY-132
         0 0.4300000                                          !PRSITY-133
         0 0.4300000                                          !PRSITY-134
         0 0.4300000                                          !PRSITY-135
         0 0.4300000                                          !PRSITY-136
         0 0.4300000                                          !PRSITY-137
         0 0.4300000                                          !PRSITY-138
         0 0.4300000                                          !PRSITY-139
         0 0.4300000                                          !PRSITY-140
         0 0.4300000                                          !PRSITY-141
         0 0.4300000                                          !PRSITY-142
         0 0.4300000                                          !PRSITY-143
         0 0.4300000                                          !PRSITY-144
         0 0.4300000                                          !PRSITY-145
         0 0.4300000                                          !PRSITY-146
         0 0.4300000                                          !PRSITY-147
         0 0.4300000                                          !PRSITY-148
         0 0.4300000                                          !PRSITY-149
         0 0.4300000                                          !PRSITY-150
         0 0.4300000                                          !PRSITY-151
         0 0.4300000                                          !PRSITY-152
         0 0.4300000                                          !PRSITY-153
         0 0.4300000                                          !PRSITY-154
         0 0.4300000                                          !PRSITY-155
         0 0.4300000                                          !PRSITY-156
         0 0.4300000                                          !PRSITY-157
         0 0.4300000                                          !PRSITY-158
         0 0.4300000                                          !PRSITY-159
         0 0.4300000                                          !PRSITY-160
         0 0.4300000                                          !PRSITY-161
         0 0.4300000                                          !PRSITY-162
         0 0.4300000                                          !PRSITY-163
         0 0.4300000                                          !PRSITY-164
         0 0.4300000                                          !PRSITY-165
         0 0.4300000                                          !PRSITY-166