 'MT3D4.00.00'           0           0           0           0           0
           0        1300           0           3           0           0
           0           0           0           0           0           0
           0           0          26           0
           1           1         650           3           1
 'THKSAT          '
   2.500000       2.529900       2.559799       2.589699       2.619606    
   2.649498       2.679398       2.709297       2.739197       2.769096    
   2.799004       2.828903       2.858803       2.888702       2.918594    
   2.948494       2.978401       3.000000       3.000000       3.000000    
   3.000000       3.000000       3.000000       3.000000       3.000000    
   3.000000       3.000000       3.000000       3.000000       3.000000    
   3.000000       3.000000       3.000000       3.000000       3.000000    
   3.000000       3.000000       3.000000       3.000000       3.000000    
   3.000000       3.000000       3.000000       3.000000       3.000000    
   3.000000       3.000000       3.000000       3.000000       3.000000    
   3.000000       3.000000       3.000000       3.000000       3.000000    
   3.000000       3.000000       3.000000       3.000000       3.000000    
   3.000000       3.000000       3.000000       3.000000       3.000000    
   3.000000       3.000000       3.000000       3.000000       3.000000    
   3.000000       3.000000       3.000000       3.000000       3.000000    
   3.000000       3.000000       3.000000       3.000000       3.000000    
   3.000000       3.000000       3.000000       3.000000       3.000000    
   3.000000       3.000000       3.000000       3.000000       3.000000    
   3.000000       3.000000       3.000000       3.000000       3.000000    
   3.000000       3.000000       3.000000       3.000000       3.000000    
   3.000000       3.000000       3.000000       3.000000       3.000000    
   3.000000       3.000000       3.000000       3.000000       3.000000    
   3.000000       3.000000       3.000000       3.000000       3.000000    
   3.000000       3.000000       3.000000       3.000000       3.000000    
   3.000000       3.000000       3.000000       3.000000       3.000000    
   3.000000       3.000000       3.000000       3.000000       3.000000    
   3.000000       3.000000       3.000000       3.000000       3.000000    
   3.000000       3.000000       3.000000       3.000000       3.000000    
   3.000000       3.000000       3.000000       3.000000       3.000000    
   3.000000       3.000000       3.000000       3.000000       3.000000    
   3.000000       3.000000       3.000000       3.000000       3.000000    
   3.000000       3.000000       3.000000       3.000000       3.000000    
   3.000000       3.000000       3.000000       3.000000       3.000000    
   3.000000       3.000000       3.000000       3.000000       3.000000    
   3.000000       3.000000       3.000000       3.000000       3.000000    
   3.000000       3.000000       3.000000       3.000000       3.000000    
   3.000000       3.000000       3.000000       3.000000       3.000000    
   3.000000       3.000000       3.000000       3.000000       3.000000    
   3.000000       3.000000       3.000000       3.000000       3.000000    
   3.000000       3.000000       3.000000       3.000000       3.000000    
   3.000000       3.000000       3.000000       3.000000       3.000000    
   3.000000       3.000000       3.000000       3.000000       3.000000    
   3.000000       3.000000       3.000000       3.000000       3.000000    
   3.000000       3.000000       3.000000       3.000000       3.000000    
   3.000000       3.000000       3.000000       3.000000       3.000000    
   3.000000       3.000000       3.000000       3.000000       3.000000    
   3.000000       3.000000       3.000000       3.000000       3.000000    
   3.000000       3.000000       3.000000       3.000000       3.000000    
   3.000000       3.000000       3.000000       3.000000       3.000000    
   3.000000       3.000000       3.000000       3.000000       3.000000    
   3.000000       3.000000       3.000000       3.000000       3.000000    
   3.000000       3.000000       3.000000       3.000000       3.000000    
   3.000000       3.000000       3.000000       3.000000       3.000000    
   3.000000       3.000000       3.000000       3.000000       3.000000    
   3.000000       3.000000       3.000000       3.000000       3.000000    
   3.000000       3.000000       3.000000       3.000000       3.000000    
   3.000000       3.000000       3.000000       3.000000       3.000000    
   3.000000       3.000000       3.000000       3.000000       3.000000    
   3.000000       3.000000       3.000000       3.000000       3.000000    
   3.000000       3.000000       3.000000       3.000000       3.000000    
   3.000000       3.000000       3.000000       3.000000       3.000000    
   3.000000       3.000000       3.000000       3.000000       3.000000    
   3.000000       3.000000       3.000000       3.000000       3.000000    
   3.000000       3.000000       3.000000       3.000000       3.000000    
   3.000000       3.000000       3.000000       3.000000       3.000000    
   3.000000       3.000000       3.000000       3.000000       3.000000    
   3.000000       3.000000       3.000000       3.000000       3.000000    
   3.000000       3.000000       3.000000       3.000000       3.000000    
   3.000000       3.000000       3.000000       3.000000       3.000000    
   3.000000       3.000000       3.000000       3.000000       3.000000    
   3.000000       3.000000       3.000000       3.000000       3.000000    
   3.000000       3.000000       3.000000       3.000000       3.000000    
   3.000000       3.000000       3.000000       3.000000       3.000000    
   3.000000       3.000000       3.000000       3.000000       3.000000    
   3.000000       3.000000       3.000000       3.000000       3.000000    
   3.000000       3.000000       3.000000       3.000000       3.000000    
   3.000000       3.000000       3.000000       3.000000       3.000000    
   3.000000       3.000000       3.000000       3.000000       3.000000    
   3.000000       3.000000       3.000000       3.000000       3.000000    
   3.000000       3.000000       3.000000       3.000000       3.000000    
   3.000000       3.000000       3.000000       3.000000       3.000000    
   3.000000       3.000000       3.000000       3.000000       3.000000    
   3.000000       3.000000       3.000000       3.000000       3.000000    
   3.000000       3.000000       3.000000       3.000000       3.000000    
   3.000000       3.000000       3.000000       3.000000       3.000000    
   3.000000       3.000000       3.000000       3.000000       3.000000    
   3.000000       3.000000       3.000000       3.000000       3.000000    
   3.000000       3.000000       3.000000       3.000000       3.000000    
   3.000000       3.000000       3.000000       3.000000       3.000000    
   3.000000       3.000000       3.000000       3.000000       3.000000    
   3.000000       3.000000       3.000000       3.000000       3.000000    
   3.000000       3.000000       3.000000       3.000000       3.000000    
   3.000000       3.000000       3.000000       3.000000       3.000000    
   3.000000       3.000000       3.000000       3.000000       3.000000    
   3.000000       3.000000       3.000000       3.000000       3.000000    
   3.000000       3.000000       3.000000       3.000000       3.000000    
   3.000000       3.000000       3.000000       3.000000       3.000000    
   3.000000       3.000000       3.000000       3.000000       3.000000    
   3.000000       3.000000       3.000000       3.000000       3.000000    
   3.000000       3.000000       3.000000       3.000000       3.000000    
   3.000000       3.000000       3.000000       3.000000       3.000000    
   3.000000       3.000000       3.000000       3.000000       3.000000    
   3.000000       3.000000       3.000000       3.000000       3.000000    
   3.000000       3.000000       3.000000       3.000000       3.000000    
   3.000000       3.000000       3.000000       3.000000       3.000000    
   3.000000       3.000000       3.000000       3.000000       3.000000    
   3.000000       3.000000       3.000000       3.000000       3.000000    
   3.000000       3.000000       3.000000       3.000000       3.000000    
   3.000000       3.000000       3.000000       3.000000       3.000000    
   3.000000       3.000000       3.000000       3.000000       3.000000    
   3.000000       3.000000       3.000000       3.000000       3.000000    
   3.000000       3.000000       3.000000       3.000000       3.000000    
   3.000000       3.000000       3.000000       3.000000       3.000000    
   3.000000       3.000000       3.000000       3.000000       3.000000    
   3.000000       3.000000       3.000000       3.000000       3.000000    
   3.000000       3.000000       3.000000       3.000000       3.000000    
   3.000000       3.000000       3.000000       3.000000       3.000000    
   3.000000       3.000000       3.000000       3.000000       3.000000    
   3.000000       3.000000       3.000000       3.000000       3.000000    
   3.000000       3.000000       3.000000       3.000000       3.000000    
   3.000000       3.000000       3.000000       3.000000       3.000000    
   3.000000       3.000000       3.000000       3.000000       3.000000    
   3.000000       3.000000       3.000000       3.000000       3.000000    
   3.000000       3.000000       3.000000       3.000000       3.000000    
   3.000000       3.000000       3.000000       3.000000       3.000000    
   3.000000       3.000000       3.000000       3.000000       3.000000    
   3.000000       3.000000       3.000000       3.000000       3.000000    
   3.000000       3.000000       3.000000       3.000000       3.000000    
   3.000000       3.000000       3.000000       3.000000       3.000000    
   3.000000       3.000000       3.000000       3.000000       3.000000    
   2.499687       2.529663       2.559616       2.589561       2.619499    
   2.649414       2.679337       2.709244       2.739159       2.769058    
   2.798973       2.828880       2.858780       2.888680       2.918579    
   2.948486       2.978394       3.000000       3.000000       3.000000    
   3.000000       3.000000       3.000000       3.000000       3.000000    
   3.000000       3.000000       3.000000       3.000000       3.000000    
   3.000000       3.000000       3.000000       3.000000       3.000000    
   3.000000       3.000000       3.000000       3.000000       3.000000    
   3.000000       3.000000       3.000000       3.000000       3.000000    
   3.000000       3.000000       3.000000       3.000000       3.000000    
   3.000000       3.000000       3.000000       3.000000       3.000000    
   3.000000       3.000000       3.000000       3.000000       3.000000    
   3.000000       3.000000       3.000000       3.000000       3.000000    
   3.000000       3.000000       3.000000       3.000000       3.000000    
   3.000000       3.000000       3.000000       3.000000       3.000000    
   3.000000       3.000000       3.000000       3.000000       3.000000    
   3.000000       3.000000       3.000000       3.000000       3.000000    
   3.000000       3.000000       3.000000       3.000000       3.000000    
   3.000000       3.000000       3.000000       3.000000       3.000000    
   3.000000       3.000000       3.000000       3.000000       3.000000    
   3.000000       3.000000       3.000000       3.000000       3.000000    
   3.000000       3.000000       3.000000       3.000000       3.000000    
   3.000000       3.000000       3.000000       3.000000       3.000000    
   3.000000       3.000000       3.000000       3.000000       3.000000    
   3.000000       3.000000       3.000000       3.000000       3.000000    
   3.000000       3.000000       3.000000       3.000000       3.000000    
   3.000000       3.000000       3.000000       3.000000       3.000000    
   3.000000       3.000000       3.000000       3.000000       3.000000    
   3.000000       3.000000       3.000000       3.000000       3.000000    
   3.000000       3.000000       3.000000       3.000000       3.000000    
   3.000000       3.000000       3.000000       3.000000       3.000000    
   3.000000       3.000000       3.000000       3.000000       3.000000    
   3.000000       3.000000       3.000000       3.000000       3.000000    
   3.000000       3.000000       3.000000       3.000000       3.000000    
   3.000000       3.000000       3.000000       3.000000       3.000000    
   3.000000       3.000000       3.000000       3.000000       3.000000    
   3.000000       3.000000       3.000000       3.000000       3.000000    
   3.000000       3.000000       3.000000       3.000000       3.000000    
   3.000000       3.000000       3.000000       3.000000       3.000000    
   3.000000       3.000000       3.000000       3.000000       3.000000    
   3.000000       3.000000       3.000000       3.000000       3.000000    
   3.000000       3.000000       3.000000       3.000000       3.000000    
   3.000000       3.000000       3.000000       3.000000       3.000000    
   3.000000       3.000000       3.000000       3.000000       3.000000    
   3.000000       3.000000       3.000000       3.000000       3.000000    
   3.000000       3.000000       3.000000       3.000000       3.000000    
   3.000000       3.000000       3.000000       3.000000       3.000000    
   3.000000       3.000000       3.000000       3.000000       3.000000    
   3.000000       3.000000       3.000000       3.000000       3.000000    
   3.000000       3.000000       3.000000       3.000000       3.000000    
   3.000000       3.000000       3.000000       3.000000       3.000000    
   3.000000       3.000000       3.000000       3.000000       3.000000    
   3.000000       3.000000       3.000000       3.000000       3.000000    
   3.000000       3.000000       3.000000       3.000000       3.000000    
   3.000000       3.000000       3.000000       3.000000       3.000000    
   3.000000       3.000000       3.000000       3.000000       3.000000    
   3.000000       3.000000       3.000000       3.000000       3.000000    
   3.000000       3.000000       3.000000       3.000000       3.000000    
   3.000000       3.000000       3.000000       3.000000       3.000000    
   3.000000       3.000000       3.000000       3.000000       3.000000    
   3.000000       3.000000       3.000000       3.000000       3.000000    
   3.000000       3.000000       3.000000       3.000000       3.000000    
   3.000000       3.000000       3.000000       3.000000       3.000000    
   3.000000       3.000000       3.000000       3.000000       3.000000    
   3.000000       3.000000       3.000000       3.000000       3.000000    
   3.000000       3.000000       3.000000       3.000000       3.000000    
   3.000000       3.000000       3.000000       3.000000       3.000000    
   3.000000       3.000000       3.000000       3.000000       3.000000    
   3.000000       3.000000       3.000000       3.000000       3.000000    
   3.000000       3.000000       3.000000       3.000000       3.000000    
   3.000000       3.000000       3.000000       3.000000       3.000000    
   3.000000       3.000000       3.000000       3.000000       3.000000    
   3.000000       3.000000       3.000000       3.000000       3.000000    
   3.000000       3.000000       3.000000       3.000000       3.000000    
   3.000000       3.000000       3.000000       3.000000       3.000000    
   3.000000       3.000000       3.000000       3.000000       3.000000    
   3.000000       3.000000       3.000000       3.000000       3.000000    
   3.000000       3.000000       3.000000       3.000000       3.000000    
   3.000000       3.000000       3.000000       3.000000       3.000000    
   3.000000       3.000000       3.000000       3.000000       3.000000    
   3.000000       3.000000       3.000000       3.000000       3.000000    
   3.000000       3.000000       3.000000       3.000000       3.000000    
   3.000000       3.000000       3.000000       3.000000       3.000000    
   3.000000       3.000000       3.000000       3.000000       3.000000    
   3.000000       3.000000       3.000000       3.000000       3.000000    
   3.000000       3.000000       3.000000       3.000000       3.000000    
   3.000000       3.000000       3.000000       3.000000       3.000000    
   3.000000       3.000000       3.000000       3.000000       3.000000    
   3.000000       3.000000       3.000000       3.000000       3.000000    
   3.000000       3.000000       3.000000       3.000000       3.000000    
   3.000000       3.000000       3.000000       3.000000       3.000000    
   3.000000       3.000000       3.000000       3.000000       3.000000    
   3.000000       3.000000       3.000000       3.000000       3.000000    
   3.000000       3.000000       3.000000       3.000000       3.000000    
   3.000000       3.000000       3.000000       3.000000       3.000000    
   3.000000       3.000000       3.000000       3.000000       3.000000    
   3.000000       3.000000       3.000000       3.000000       3.000000    
   3.000000       3.000000       3.000000       3.000000       3.000000    
   3.000000       3.000000       3.000000       3.000000       3.000000    
   3.000000       3.000000       3.000000       3.000000       3.000000    
   3.000000       3.000000       3.000000       3.000000       3.000000    
   3.000000       3.000000       3.000000       3.000000       3.000000    
   3.000000       3.000000       3.000000       3.000000       3.000000    
   3.000000       3.000000       3.000000       3.000000       3.000000    
   3.000000       3.000000       3.000000       3.000000       3.000000    
   3.000000       3.000000       3.000000       3.000000       3.000000    
   3.000000       3.000000       3.000000       3.000000       3.000000    
   3.000000       3.000000       3.000000       3.000000       3.000000    
   3.000000       3.000000       3.000000       3.000000       3.000000    
   3.000000       3.000000       3.000000       3.000000       3.000000    
   3.000000       3.000000       3.000000       3.000000       3.000000    
   3.000000       3.000000       3.000000       3.000000       3.000000    
   3.000000       3.000000       3.000000       3.000000       3.000000    
   3.000000       3.000000       3.000000       3.000000       3.000000    
   3.000000       3.000000       3.000000       3.000000       3.000000    
   3.000000       3.000000       3.000000       3.000000       3.000000    
   3.000000       3.000000       3.000000       3.000000       3.000000    
   3.000000       3.000000       3.000000       3.000000       3.000000    
   3.000000       3.000000       3.000000       3.000000       3.000000    
   3.000000       3.000000       3.000000       3.000000       3.000000    
   3.000000       3.000000       3.000000       3.000000       3.000000    
   3.000000       3.000000       3.000000       3.000000       3.000000    
   3.000000       3.000000       3.000000       3.000000       3.000000    
   3.000000       3.000000       3.000000       3.000000       3.000000    
   3.000000       3.000000       3.000000       3.000000       3.000000    
   3.000000       3.000000       3.000000       3.000000       3.000000    
   3.000000       3.000000       3.000000       3.000000       3.000000    
   3.000000       3.000000       3.000000       3.000000       3.000000    
   3.000000       3.000000       3.000000       3.000000       3.000000    
   3.000000       3.000000       3.000000       3.000000       3.000000    
   2.500000       2.529900       2.559799       2.589699       2.619606    
   2.649498       2.679398       2.709297       2.739197       2.769096    
   2.799004       2.828903       2.858803       2.888702       2.918594    
   2.948494       2.978401       3.000000       3.000000       3.000000    
   3.000000       3.000000       3.000000       3.000000       3.000000    
   3.000000       3.000000       3.000000       3.000000       3.000000    
   3.000000       3.000000       3.000000       3.000000       3.000000    
   3.000000       3.000000       3.000000       3.000000       3.000000    
   3.000000       3.000000       3.000000       3.000000       3.000000    
   3.000000       3.000000       3.000000       3.000000       3.000000    
   3.000000       3.000000       3.000000       3.000000       3.000000    
   3.000000       3.000000       3.000000       3.000000       3.000000    
   3.000000       3.000000       3.000000       3.000000       3.000000    
   3.000000       3.000000       3.000000       3.000000       3.000000    
   3.000000       3.000000       3.000000       3.000000       3.000000    
   3.000000       3.000000       3.000000       3.000000       3.000000    
   3.000000       3.000000       3.000000       3.000000       3.000000    
   3.000000       3.000000       3.000000       3.000000       3.000000    
   3.000000       3.000000       3.000000       3.000000       3.000000    
   3.000000       3.000000       3.000000       3.000000       3.000000    
   3.000000       3.000000       3.000000       3.000000       3.000000    
   3.000000       3.000000       3.000000       3.000000       3.000000    
   3.000000       3.000000       3.000000       3.000000       3.000000    
   3.000000       3.000000       3.000000       3.000000       3.000000    
   3.000000       3.000000       3.000000       3.000000       3.000000    
   3.000000       3.000000       3.000000       3.000000       3.000000    
   3.000000       3.000000       3.000000       3.000000       3.000000    
   3.000000       3.000000       3.000000       3.000000       3.000000    
   3.000000       3.000000       3.000000       3.000000       3.000000    
   3.000000       3.000000       3.000000       3.000000       3.000000    
   3.000000       3.000000       3.000000       3.000000       3.000000    
   3.000000       3.000000       3.000000       3.000000       3.000000    
   3.000000       3.000000       3.000000       3.000000       3.000000    
   3.000000       3.000000       3.000000       3.000000       3.000000    
   3.000000       3.000000       3.000000       3.000000       3.000000    
   3.000000       3.000000       3.000000       3.000000       3.000000    
   3.000000       3.000000       3.000000       3.000000       3.000000    
   3.000000       3.000000       3.000000       3.000000       3.000000    
   3.000000       3.000000       3.000000       3.000000       3.000000    
   3.000000       3.000000       3.000000       3.000000       3.000000    
   3.000000       3.000000       3.000000       3.000000       3.000000    
   3.000000       3.000000       3.000000       3.000000       3.000000    
   3.000000       3.000000       3.000000       3.000000       3.000000    
   3.000000       3.000000       3.000000       3.000000       3.000000    
   3.000000       3.000000       3.000000       3.000000       3.000000    
   3.000000       3.000000       3.000000       3.000000       3.000000    
   3.000000       3.000000       3.000000       3.000000       3.000000    
   3.000000       3.000000       3.000000       3.000000       3.000000    
   3.000000       3.000000       3.000000       3.000000       3.000000    
   3.000000       3.000000       3.000000       3.000000       3.000000    
   3.000000       3.000000       3.000000       3.000000       3.000000    
   3.000000       3.000000       3.000000       3.000000       3.000000    
   3.000000       3.000000       3.000000       3.000000       3.000000    
   3.000000       3.000000       3.000000       3.000000       3.000000    
   3.000000       3.000000       3.000000       3.000000       3.000000    
   3.000000       3.000000       3.000000       3.000000       3.000000    
   3.000000       3.000000       3.000000       3.000000       3.000000    
   3.000000       3.000000       3.000000       3.000000       3.000000    
   3.000000       3.000000       3.000000       3.000000       3.000000    
   3.000000       3.000000       3.000000       3.000000       3.000000    
   3.000000       3.000000       3.000000       3.000000       3.000000    
   3.000000       3.000000       3.000000       3.000000       3.000000    
   3.000000       3.000000       3.000000       3.000000       3.000000    
   3.000000       3.000000       3.000000       3.000000       3.000000    
   3.000000       3.000000       3.000000       3.000000       3.000000    
   3.000000       3.000000       3.000000       3.000000       3.000000    
   3.000000       3.000000       3.000000       3.000000       3.000000    
   3.000000       3.000000       3.000000       3.000000       3.000000    
   3.000000       3.000000       3.000000       3.000000       3.000000    
   3.000000       3.000000       3.000000       3.000000       3.000000    
   3.000000       3.000000       3.000000       3.000000       3.000000    
   3.000000       3.000000       3.000000       3.000000       3.000000    
   3.000000       3.000000       3.000000       3.000000       3.000000    
   3.000000       3.000000       3.000000       3.000000       3.000000    
   3.000000       3.000000       3.000000       3.000000       3.000000    
   3.000000       3.000000       3.000000       3.000000       3.000000    
   3.000000       3.000000       3.000000       3.000000       3.000000    
   3.000000       3.000000       3.000000       3.000000       3.000000    
   3.000000       3.000000       3.000000       3.000000       3.000000    
   3.000000       3.000000       3.000000       3.000000       3.000000    
   3.000000       3.000000       3.000000       3.000000       3.000000    
   3.000000       3.000000       3.000000       3.000000       3.000000    
   3.000000       3.000000       3.000000       3.000000       3.000000    
   3.000000       3.000000       3.000000       3.000000       3.000000    
   3.000000       3.000000       3.000000       3.000000       3.000000    
   3.000000       3.000000       3.000000       3.000000       3.000000    
   3.000000       3.000000       3.000000       3.000000       3.000000    
   3.000000       3.000000       3.000000       3.000000       3.000000    
   3.000000       3.000000       3.000000       3.000000       3.000000    
   3.000000       3.000000       3.000000       3.000000       3.000000    
   3.000000       3.000000       3.000000       3.000000       3.000000    
   3.000000       3.000000       3.000000       3.000000       3.000000    
   3.000000       3.000000       3.000000       3.000000       3.000000    
   3.000000       3.000000       3.000000       3.000000       3.000000    
   3.000000       3.000000       3.000000       3.000000       3.000000    
   3.000000       3.000000       3.000000       3.000000       3.000000    
   3.000000       3.000000       3.000000       3.000000       3.000000    
   3.000000       3.000000       3.000000       3.000000       3.000000    
   3.000000       3.000000       3.000000       3.000000       3.000000    
   3.000000       3.000000       3.000000       3.000000       3.000000    
   3.000000       3.000000       3.000000       3.000000       3.000000    
   3.000000       3.000000       3.000000       3.000000       3.000000    
   3.000000       3.000000       3.000000       3.000000       3.000000    
   3.000000       3.000000       3.000000       3.000000       3.000000    
   3.000000       3.000000       3.000000       3.000000       3.000000    
   3.000000       3.000000       3.000000       3.000000       3.000000    
   3.000000       3.000000       3.000000       3.000000       3.000000    
   3.000000       3.000000       3.000000       3.000000       3.000000    
   3.000000       3.000000       3.000000       3.000000       3.000000    
   3.000000       3.000000       3.000000       3.000000       3.000000    
   3.000000       3.000000       3.000000       3.000000       3.000000    
   3.000000       3.000000       3.000000       3.000000       3.000000    
   3.000000       3.000000       3.000000       3.000000       3.000000    
   3.000000       3.000000       3.000000       3.000000       3.000000    
   3.000000       3.000000       3.000000       3.000000       3.000000    
   3.000000       3.000000       3.000000       3.000000       3.000000    
   3.000000       3.000000       3.000000       3.000000       3.000000    
   3.000000       3.000000       3.000000       3.000000       3.000000    
   3.000000       3.000000       3.000000       3.000000       3.000000    
   3.000000       3.000000       3.000000       3.000000       3.000000    
   3.000000       3.000000       3.000000       3.000000       3.000000    
   3.000000       3.000000       3.000000       3.000000       3.000000    
   3.000000       3.000000       3.000000       3.000000       3.000000    
   3.000000       3.000000       3.000000       3.000000       3.000000    
   3.000000       3.000000       3.000000       3.000000       3.000000    
   3.000000       3.000000       3.000000       3.000000       3.000000    
   3.000000       3.000000       3.000000       3.000000       3.000000    
   3.000000       3.000000       3.000000       3.000000       3.000000    
   3.000000       3.000000       3.000000       3.000000       3.000000    
   3.000000       3.000000       3.000000       3.000000       3.000000    