 'MT3D4.00.00'           0           0           0           0           0
           0           3           1           1           0           0
           0           0           0           0           0           0
           0           0           0           0
           1           1           6           1           2
 'THKSAT          '
   5.000000       3.397733       1.555681      0.0000000E+00  0.0000000E+00
  1.0000000E+30   10.00000       10.00000       10.00000       9.030924    
   6.175572       2.000000    
           1           1           6           1           2
 'QXX             '
   801.1338       625.8766       339.8885      0.0000000E+00  0.0000000E+00
  0.0000000E+00   1777.525       1952.782       2238.770       2578.658    
   2578.659      0.0000000E+00
           1           1           6           1           2
 'QZZ             '
  0.0000000E+00   175.2571       285.9881       339.8889      2.5806358E-04
  0.0000000E+00  0.0000000E+00  0.0000000E+00  0.0000000E+00  0.0000000E+00
  0.0000000E+00  0.0000000E+00
           1           1           6           1           2
 'CNH             '           3
           1           1           1   801.1338    
           2           1           1   1777.525    
           2           1           6  -2578.659    
