# Name File for MODFLOW created on 5/17/2019 by ModelMuse Version 3.10.0.60
LIST             11 ImportMt3dmsMultidiffusion.lst REPLACE
DATA(BINARY)      9 ImportMt3dmsMultidiffusion.cbc REPLACE
DIS              12 ImportMt3dmsMultidiffusion.dis OLD
BAS6             13 ImportMt3dmsMultidiffusion.bas OLD
OC               39 ImportMt3dmsMultidiffusion.oc OLD
DATA             37 ImportMt3dmsMultidiffusion.fhd REPLACE
DATA             38 ImportMt3dmsMultidiffusion.fdn REPLACE
SIP              35 ImportMt3dmsMultidiffusion.sip OLD
BCF6             64 ImportMt3dmsMultidiffusion.bcf OLD
LMT6            135 ImportMt3dmsMultidiffusion.lmt OLD
DATA(BINARY)    136 ImportMt3dmsMultidiffusion.ftl REPLACE
CHD              17 ImportMt3dmsMultidiffusion.chd OLD
WEL              20 ImportMt3dmsMultidiffusion.wel OLD
