# Name File for MT3DMS created on 2/19/2019 by ModelMuse
LIST             16     ImportedP5.mls
FT6              10     ImportedP5.cbc
FT6              20     ImportedP5.bhd
FT6              21     ImportedP5.dis.grb
ADV               2     ImportedP5.adv
BTN               1     ImportedP5.btn
DSP               3     ImportedP5.dsp
SSM               4     ImportedP5.ssm
GCG               9     ImportedP5.gcg
DATA             17     ImportedP5.cnf
DATA(BINARY)    201     ImportedP5_Comp1.ucn
DATA            601     ImportedP5_Comp1._mas
DATA            401     ImportedP5_Comp1.mto
