# MODFLOW2000 - Link-MT3DMS Package Input File
OUTPUT_FILE_NAME 2ed5ea.ftl
OUTPUT_FILE_UNIT 12
OUTPUT_FILE_HEADER Extended
OUTPUT_FILE_FORMAT Unformatted
