# Name File for MODFLOW created on 2/19/2019 by ModelMuse Version 3.10.0.42
BEGIN OPTIONS
  LIST         ImportMt3dmsTob.lst
  PRINT_INPUT
  SAVE_FLOWS
END OPTIONS

BEGIN PACKAGES
  DIS6         ImportMt3dmsTob.dis
  IC6          ImportMt3dmsTob.ic
  NPF6         ImportMt3dmsTob.npf
  OC6          ImportMt3dmsTob.oc
  CHD6         ImportMt3dmsTob.chd
  WEL6         ImportMt3dmsTob.wel
END PACKAGES
