# 3D TEST PROBLEM
# UNIFORM FLOW FIELD
# Initial Conditions Package file created on 2/19/2019 by ModelMuse version 3.10.0.42.
BEGIN OPTIONS
END OPTIONS

BEGIN GRIDDATA
  STRT LAYERED
    INTERNAL IPRN     12 # STRT Layer 1
        8.000000000000E+001   7.900000000000E+001   7.800000000000E+001   7.700000000000E+001   7.600000000000E+001   7.500000000000E+001   7.400000000000E+001   7.300000000000E+001   7.200000000000E+001   7.100000000000E+001 
        7.000000000000E+001   6.900000000000E+001   6.800000000000E+001   6.700000000000E+001   6.600000000000E+001   6.500000000000E+001   6.400000000000E+001   6.300000000000E+001   6.200000000000E+001   6.100000000000E+001 
        6.000000000000E+001 
        8.000000000000E+001   7.900000000000E+001   7.800000000000E+001   7.700000000000E+001   7.600000000000E+001   7.500000000000E+001   7.400000000000E+001   7.300000000000E+001   7.200000000000E+001   7.100000000000E+001 
        7.000000000000E+001   6.900000000000E+001   6.800000000000E+001   6.700000000000E+001   6.600000000000E+001   6.500000000000E+001   6.400000000000E+001   6.300000000000E+001   6.200000000000E+001   6.100000000000E+001 
        6.000000000000E+001 
        8.000000000000E+001   7.900000000000E+001   7.800000000000E+001   7.700000000000E+001   7.600000000000E+001   7.500000000000E+001   7.400000000000E+001   7.300000000000E+001   7.200000000000E+001   7.100000000000E+001 
        7.000000000000E+001   6.900000000000E+001   6.800000000000E+001   6.700000000000E+001   6.600000000000E+001   6.500000000000E+001   6.400000000000E+001   6.300000000000E+001   6.200000000000E+001   6.100000000000E+001 
        6.000000000000E+001 
        8.000000000000E+001   7.900000000000E+001   7.800000000000E+001   7.700000000000E+001   7.600000000000E+001   7.500000000000E+001   7.400000000000E+001   7.300000000000E+001   7.200000000000E+001   7.100000000000E+001 
        7.000000000000E+001   6.900000000000E+001   6.800000000000E+001   6.700000000000E+001   6.600000000000E+001   6.500000000000E+001   6.400000000000E+001   6.300000000000E+001   6.200000000000E+001   6.100000000000E+001 
        6.000000000000E+001 
        8.000000000000E+001   7.900000000000E+001   7.800000000000E+001   7.700000000000E+001   7.600000000000E+001   7.500000000000E+001   7.400000000000E+001   7.300000000000E+001   7.200000000000E+001   7.100000000000E+001 
        7.000000000000E+001   6.900000000000E+001   6.800000000000E+001   6.700000000000E+001   6.600000000000E+001   6.500000000000E+001   6.400000000000E+001   6.300000000000E+001   6.200000000000E+001   6.100000000000E+001 
        6.000000000000E+001 
        8.000000000000E+001   7.900000000000E+001   7.800000000000E+001   7.700000000000E+001   7.600000000000E+001   7.500000000000E+001   7.400000000000E+001   7.300000000000E+001   7.200000000000E+001   7.100000000000E+001 
        7.000000000000E+001   6.900000000000E+001   6.800000000000E+001   6.700000000000E+001   6.600000000000E+001   6.500000000000E+001   6.400000000000E+001   6.300000000000E+001   6.200000000000E+001   6.100000000000E+001 
        6.000000000000E+001 
        8.000000000000E+001   7.900000000000E+001   7.800000000000E+001   7.700000000000E+001   7.600000000000E+001   7.500000000000E+001   7.400000000000E+001   7.300000000000E+001   7.200000000000E+001   7.100000000000E+001 
        7.000000000000E+001   6.900000000000E+001   6.800000000000E+001   6.700000000000E+001   6.600000000000E+001   6.500000000000E+001   6.400000000000E+001   6.300000000000E+001   6.200000000000E+001   6.100000000000E+001 
        6.000000000000E+001 
        8.000000000000E+001   7.900000000000E+001   7.800000000000E+001   7.700000000000E+001   7.600000000000E+001   7.500000000000E+001   7.400000000000E+001   7.300000000000E+001   7.200000000000E+001   7.100000000000E+001 
        7.000000000000E+001   6.900000000000E+001   6.800000000000E+001   6.700000000000E+001   6.600000000000E+001   6.500000000000E+001   6.400000000000E+001   6.300000000000E+001   6.200000000000E+001   6.100000000000E+001 
        6.000000000000E+001 
        8.000000000000E+001   7.900000000000E+001   7.800000000000E+001   7.700000000000E+001   7.600000000000E+001   7.500000000000E+001   7.400000000000E+001   7.300000000000E+001   7.200000000000E+001   7.100000000000E+001 
        7.000000000000E+001   6.900000000000E+001   6.800000000000E+001   6.700000000000E+001   6.600000000000E+001   6.500000000000E+001   6.400000000000E+001   6.300000000000E+001   6.200000000000E+001   6.100000000000E+001 
        6.000000000000E+001 
        8.000000000000E+001   7.900000000000E+001   7.800000000000E+001   7.700000000000E+001   7.600000000000E+001   7.500000000000E+001   7.400000000000E+001   7.300000000000E+001   7.200000000000E+001   7.100000000000E+001 
        7.000000000000E+001   6.900000000000E+001   6.800000000000E+001   6.700000000000E+001   6.600000000000E+001   6.500000000000E+001   6.400000000000E+001   6.300000000000E+001   6.200000000000E+001   6.100000000000E+001 
        6.000000000000E+001 
        8.000000000000E+001   7.900000000000E+001   7.800000000000E+001   7.700000000000E+001   7.600000000000E+001   7.500000000000E+001   7.400000000000E+001   7.300000000000E+001   7.200000000000E+001   7.100000000000E+001 
        7.000000000000E+001   6.900000000000E+001   6.800000000000E+001   6.700000000000E+001   6.600000000000E+001   6.500000000000E+001   6.400000000000E+001   6.300000000000E+001   6.200000000000E+001   6.100000000000E+001 
        6.000000000000E+001 
        8.000000000000E+001   7.900000000000E+001   7.800000000000E+001   7.700000000000E+001   7.600000000000E+001   7.500000000000E+001   7.400000000000E+001   7.300000000000E+001   7.200000000000E+001   7.100000000000E+001 
        7.000000000000E+001   6.900000000000E+001   6.800000000000E+001   6.700000000000E+001   6.600000000000E+001   6.500000000000E+001   6.400000000000E+001   6.300000000000E+001   6.200000000000E+001   6.100000000000E+001 
        6.000000000000E+001 
        8.000000000000E+001   7.900000000000E+001   7.800000000000E+001   7.700000000000E+001   7.600000000000E+001   7.500000000000E+001   7.400000000000E+001   7.300000000000E+001   7.200000000000E+001   7.100000000000E+001 
        7.000000000000E+001   6.900000000000E+001   6.800000000000E+001   6.700000000000E+001   6.600000000000E+001   6.500000000000E+001   6.400000000000E+001   6.300000000000E+001   6.200000000000E+001   6.100000000000E+001 
        6.000000000000E+001 
        8.000000000000E+001   7.900000000000E+001   7.800000000000E+001   7.700000000000E+001   7.600000000000E+001   7.500000000000E+001   7.400000000000E+001   7.300000000000E+001   7.200000000000E+001   7.100000000000E+001 
        7.000000000000E+001   6.900000000000E+001   6.800000000000E+001   6.700000000000E+001   6.600000000000E+001   6.500000000000E+001   6.400000000000E+001   6.300000000000E+001   6.200000000000E+001   6.100000000000E+001 
        6.000000000000E+001 
        8.000000000000E+001   7.900000000000E+001   7.800000000000E+001   7.700000000000E+001   7.600000000000E+001   7.500000000000E+001   7.400000000000E+001   7.300000000000E+001   7.200000000000E+001   7.100000000000E+001 
        7.000000000000E+001   6.900000000000E+001   6.800000000000E+001   6.700000000000E+001   6.600000000000E+001   6.500000000000E+001   6.400000000000E+001   6.300000000000E+001   6.200000000000E+001   6.100000000000E+001 
        6.000000000000E+001 
    INTERNAL IPRN     12 # STRT Layer 2
        8.000000000000E+001   7.900000000000E+001   7.800000000000E+001   7.700000000000E+001   7.600000000000E+001   7.500000000000E+001   7.400000000000E+001   7.300000000000E+001   7.200000000000E+001   7.100000000000E+001 
        7.000000000000E+001   6.900000000000E+001   6.800000000000E+001   6.700000000000E+001   6.600000000000E+001   6.500000000000E+001   6.400000000000E+001   6.300000000000E+001   6.200000000000E+001   6.100000000000E+001 
        6.000000000000E+001 
        8.000000000000E+001   7.900000000000E+001   7.800000000000E+001   7.700000000000E+001   7.600000000000E+001   7.500000000000E+001   7.400000000000E+001   7.300000000000E+001   7.200000000000E+001   7.100000000000E+001 
        7.000000000000E+001   6.900000000000E+001   6.800000000000E+001   6.700000000000E+001   6.600000000000E+001   6.500000000000E+001   6.400000000000E+001   6.300000000000E+001   6.200000000000E+001   6.100000000000E+001 
        6.000000000000E+001 
        8.000000000000E+001   7.900000000000E+001   7.800000000000E+001   7.700000000000E+001   7.600000000000E+001   7.500000000000E+001   7.400000000000E+001   7.300000000000E+001   7.200000000000E+001   7.100000000000E+001 
        7.000000000000E+001   6.900000000000E+001   6.800000000000E+001   6.700000000000E+001   6.600000000000E+001   6.500000000000E+001   6.400000000000E+001   6.300000000000E+001   6.200000000000E+001   6.100000000000E+001 
        6.000000000000E+001 
        8.000000000000E+001   7.900000000000E+001   7.800000000000E+001   7.700000000000E+001   7.600000000000E+001   7.500000000000E+001   7.400000000000E+001   7.300000000000E+001   7.200000000000E+001   7.100000000000E+001 
        7.000000000000E+001   6.900000000000E+001   6.800000000000E+001   6.700000000000E+001   6.600000000000E+001   6.500000000000E+001   6.400000000000E+001   6.300000000000E+001   6.200000000000E+001   6.100000000000E+001 
        6.000000000000E+001 
        8.000000000000E+001   7.900000000000E+001   7.800000000000E+001   7.700000000000E+001   7.600000000000E+001   7.500000000000E+001   7.400000000000E+001   7.300000000000E+001   7.200000000000E+001   7.100000000000E+001 
        7.000000000000E+001   6.900000000000E+001   6.800000000000E+001   6.700000000000E+001   6.600000000000E+001   6.500000000000E+001   6.400000000000E+001   6.300000000000E+001   6.200000000000E+001   6.100000000000E+001 
        6.000000000000E+001 
        8.000000000000E+001   7.900000000000E+001   7.800000000000E+001   7.700000000000E+001   7.600000000000E+001   7.500000000000E+001   7.400000000000E+001   7.300000000000E+001   7.200000000000E+001   7.100000000000E+001 
        7.000000000000E+001   6.900000000000E+001   6.800000000000E+001   6.700000000000E+001   6.600000000000E+001   6.500000000000E+001   6.400000000000E+001   6.300000000000E+001   6.200000000000E+001   6.100000000000E+001 
        6.000000000000E+001 
        8.000000000000E+001   7.900000000000E+001   7.800000000000E+001   7.700000000000E+001   7.600000000000E+001   7.500000000000E+001   7.400000000000E+001   7.300000000000E+001   7.200000000000E+001   7.100000000000E+001 
        7.000000000000E+001   6.900000000000E+001   6.800000000000E+001   6.700000000000E+001   6.600000000000E+001   6.500000000000E+001   6.400000000000E+001   6.300000000000E+001   6.200000000000E+001   6.100000000000E+001 
        6.000000000000E+001 
        8.000000000000E+001   7.900000000000E+001   7.800000000000E+001   7.700000000000E+001   7.600000000000E+001   7.500000000000E+001   7.400000000000E+001   7.300000000000E+001   7.200000000000E+001   7.100000000000E+001 
        7.000000000000E+001   6.900000000000E+001   6.800000000000E+001   6.700000000000E+001   6.600000000000E+001   6.500000000000E+001   6.400000000000E+001   6.300000000000E+001   6.200000000000E+001   6.100000000000E+001 
        6.000000000000E+001 
        8.000000000000E+001   7.900000000000E+001   7.800000000000E+001   7.700000000000E+001   7.600000000000E+001   7.500000000000E+001   7.400000000000E+001   7.300000000000E+001   7.200000000000E+001   7.100000000000E+001 
        7.000000000000E+001   6.900000000000E+001   6.800000000000E+001   6.700000000000E+001   6.600000000000E+001   6.500000000000E+001   6.400000000000E+001   6.300000000000E+001   6.200000000000E+001   6.100000000000E+001 
        6.000000000000E+001 
        8.000000000000E+001   7.900000000000E+001   7.800000000000E+001   7.700000000000E+001   7.600000000000E+001   7.500000000000E+001   7.400000000000E+001   7.300000000000E+001   7.200000000000E+001   7.100000000000E+001 
        7.000000000000E+001   6.900000000000E+001   6.800000000000E+001   6.700000000000E+001   6.600000000000E+001   6.500000000000E+001   6.400000000000E+001   6.300000000000E+001   6.200000000000E+001   6.100000000000E+001 
        6.000000000000E+001 
        8.000000000000E+001   7.900000000000E+001   7.800000000000E+001   7.700000000000E+001   7.600000000000E+001   7.500000000000E+001   7.400000000000E+001   7.300000000000E+001   7.200000000000E+001   7.100000000000E+001 
        7.000000000000E+001   6.900000000000E+001   6.800000000000E+001   6.700000000000E+001   6.600000000000E+001   6.500000000000E+001   6.400000000000E+001   6.300000000000E+001   6.200000000000E+001   6.100000000000E+001 
        6.000000000000E+001 
        8.000000000000E+001   7.900000000000E+001   7.800000000000E+001   7.700000000000E+001   7.600000000000E+001   7.500000000000E+001   7.400000000000E+001   7.300000000000E+001   7.200000000000E+001   7.100000000000E+001 
        7.000000000000E+001   6.900000000000E+001   6.800000000000E+001   6.700000000000E+001   6.600000000000E+001   6.500000000000E+001   6.400000000000E+001   6.300000000000E+001   6.200000000000E+001   6.100000000000E+001 
        6.000000000000E+001 
        8.000000000000E+001   7.900000000000E+001   7.800000000000E+001   7.700000000000E+001   7.600000000000E+001   7.500000000000E+001   7.400000000000E+001   7.300000000000E+001   7.200000000000E+001   7.100000000000E+001 
        7.000000000000E+001   6.900000000000E+001   6.800000000000E+001   6.700000000000E+001   6.600000000000E+001   6.500000000000E+001   6.400000000000E+001   6.300000000000E+001   6.200000000000E+001   6.100000000000E+001 
        6.000000000000E+001 
        8.000000000000E+001   7.900000000000E+001   7.800000000000E+001   7.700000000000E+001   7.600000000000E+001   7.500000000000E+001   7.400000000000E+001   7.300000000000E+001   7.200000000000E+001   7.100000000000E+001 
        7.000000000000E+001   6.900000000000E+001   6.800000000000E+001   6.700000000000E+001   6.600000000000E+001   6.500000000000E+001   6.400000000000E+001   6.300000000000E+001   6.200000000000E+001   6.100000000000E+001 
        6.000000000000E+001 
        8.000000000000E+001   7.900000000000E+001   7.800000000000E+001   7.700000000000E+001   7.600000000000E+001   7.500000000000E+001   7.400000000000E+001   7.300000000000E+001   7.200000000000E+001   7.100000000000E+001 
        7.000000000000E+001   6.900000000000E+001   6.800000000000E+001   6.700000000000E+001   6.600000000000E+001   6.500000000000E+001   6.400000000000E+001   6.300000000000E+001   6.200000000000E+001   6.100000000000E+001 
        6.000000000000E+001 
    INTERNAL IPRN     12 # STRT Layer 3
        8.000000000000E+001   7.900000000000E+001   7.800000000000E+001   7.700000000000E+001   7.600000000000E+001   7.500000000000E+001   7.400000000000E+001   7.300000000000E+001   7.200000000000E+001   7.100000000000E+001 
        7.000000000000E+001   6.900000000000E+001   6.800000000000E+001   6.700000000000E+001   6.600000000000E+001   6.500000000000E+001   6.400000000000E+001   6.300000000000E+001   6.200000000000E+001   6.100000000000E+001 
        6.000000000000E+001 
        8.000000000000E+001   7.900000000000E+001   7.800000000000E+001   7.700000000000E+001   7.600000000000E+001   7.500000000000E+001   7.400000000000E+001   7.300000000000E+001   7.200000000000E+001   7.100000000000E+001 
        7.000000000000E+001   6.900000000000E+001   6.800000000000E+001   6.700000000000E+001   6.600000000000E+001   6.500000000000E+001   6.400000000000E+001   6.300000000000E+001   6.200000000000E+001   6.100000000000E+001 
        6.000000000000E+001 
        8.000000000000E+001   7.900000000000E+001   7.800000000000E+001   7.700000000000E+001   7.600000000000E+001   7.500000000000E+001   7.400000000000E+001   7.300000000000E+001   7.200000000000E+001   7.100000000000E+001 
        7.000000000000E+001   6.900000000000E+001   6.800000000000E+001   6.700000000000E+001   6.600000000000E+001   6.500000000000E+001   6.400000000000E+001   6.300000000000E+001   6.200000000000E+001   6.100000000000E+001 
        6.000000000000E+001 
        8.000000000000E+001   7.900000000000E+001   7.800000000000E+001   7.700000000000E+001   7.600000000000E+001   7.500000000000E+001   7.400000000000E+001   7.300000000000E+001   7.200000000000E+001   7.100000000000E+001 
        7.000000000000E+001   6.900000000000E+001   6.800000000000E+001   6.700000000000E+001   6.600000000000E+001   6.500000000000E+001   6.400000000000E+001   6.300000000000E+001   6.200000000000E+001   6.100000000000E+001 
        6.000000000000E+001 
        8.000000000000E+001   7.900000000000E+001   7.800000000000E+001   7.700000000000E+001   7.600000000000E+001   7.500000000000E+001   7.400000000000E+001   7.300000000000E+001   7.200000000000E+001   7.100000000000E+001 
        7.000000000000E+001   6.900000000000E+001   6.800000000000E+001   6.700000000000E+001   6.600000000000E+001   6.500000000000E+001   6.400000000000E+001   6.300000000000E+001   6.200000000000E+001   6.100000000000E+001 
        6.000000000000E+001 
        8.000000000000E+001   7.900000000000E+001   7.800000000000E+001   7.700000000000E+001   7.600000000000E+001   7.500000000000E+001   7.400000000000E+001   7.300000000000E+001   7.200000000000E+001   7.100000000000E+001 
        7.000000000000E+001   6.900000000000E+001   6.800000000000E+001   6.700000000000E+001   6.600000000000E+001   6.500000000000E+001   6.400000000000E+001   6.300000000000E+001   6.200000000000E+001   6.100000000000E+001 
        6.000000000000E+001 
        8.000000000000E+001   7.900000000000E+001   7.800000000000E+001   7.700000000000E+001   7.600000000000E+001   7.500000000000E+001   7.400000000000E+001   7.300000000000E+001   7.200000000000E+001   7.100000000000E+001 
        7.000000000000E+001   6.900000000000E+001   6.800000000000E+001   6.700000000000E+001   6.600000000000E+001   6.500000000000E+001   6.400000000000E+001   6.300000000000E+001   6.200000000000E+001   6.100000000000E+001 
        6.000000000000E+001 
        8.000000000000E+001   7.900000000000E+001   7.800000000000E+001   7.700000000000E+001   7.600000000000E+001   7.500000000000E+001   7.400000000000E+001   7.300000000000E+001   7.200000000000E+001   7.100000000000E+001 
        7.000000000000E+001   6.900000000000E+001   6.800000000000E+001   6.700000000000E+001   6.600000000000E+001   6.500000000000E+001   6.400000000000E+001   6.300000000000E+001   6.200000000000E+001   6.100000000000E+001 
        6.000000000000E+001 
        8.000000000000E+001   7.900000000000E+001   7.800000000000E+001   7.700000000000E+001   7.600000000000E+001   7.500000000000E+001   7.400000000000E+001   7.300000000000E+001   7.200000000000E+001   7.100000000000E+001 
        7.000000000000E+001   6.900000000000E+001   6.800000000000E+001   6.700000000000E+001   6.600000000000E+001   6.500000000000E+001   6.400000000000E+001   6.300000000000E+001   6.200000000000E+001   6.100000000000E+001 
        6.000000000000E+001 
        8.000000000000E+001   7.900000000000E+001   7.800000000000E+001   7.700000000000E+001   7.600000000000E+001   7.500000000000E+001   7.400000000000E+001   7.300000000000E+001   7.200000000000E+001   7.100000000000E+001 
        7.000000000000E+001   6.900000000000E+001   6.800000000000E+001   6.700000000000E+001   6.600000000000E+001   6.500000000000E+001   6.400000000000E+001   6.300000000000E+001   6.200000000000E+001   6.100000000000E+001 
        6.000000000000E+001 
        8.000000000000E+001   7.900000000000E+001   7.800000000000E+001   7.700000000000E+001   7.600000000000E+001   7.500000000000E+001   7.400000000000E+001   7.300000000000E+001   7.200000000000E+001   7.100000000000E+001 
        7.000000000000E+001   6.900000000000E+001   6.800000000000E+001   6.700000000000E+001   6.600000000000E+001   6.500000000000E+001   6.400000000000E+001   6.300000000000E+001   6.200000000000E+001   6.100000000000E+001 
        6.000000000000E+001 
        8.000000000000E+001   7.900000000000E+001   7.800000000000E+001   7.700000000000E+001   7.600000000000E+001   7.500000000000E+001   7.400000000000E+001   7.300000000000E+001   7.200000000000E+001   7.100000000000E+001 
        7.000000000000E+001   6.900000000000E+001   6.800000000000E+001   6.700000000000E+001   6.600000000000E+001   6.500000000000E+001   6.400000000000E+001   6.300000000000E+001   6.200000000000E+001   6.100000000000E+001 
        6.000000000000E+001 
        8.000000000000E+001   7.900000000000E+001   7.800000000000E+001   7.700000000000E+001   7.600000000000E+001   7.500000000000E+001   7.400000000000E+001   7.300000000000E+001   7.200000000000E+001   7.100000000000E+001 
        7.000000000000E+001   6.900000000000E+001   6.800000000000E+001   6.700000000000E+001   6.600000000000E+001   6.500000000000E+001   6.400000000000E+001   6.300000000000E+001   6.200000000000E+001   6.100000000000E+001 
        6.000000000000E+001 
        8.000000000000E+001   7.900000000000E+001   7.800000000000E+001   7.700000000000E+001   7.600000000000E+001   7.500000000000E+001   7.400000000000E+001   7.300000000000E+001   7.200000000000E+001   7.100000000000E+001 
        7.000000000000E+001   6.900000000000E+001   6.800000000000E+001   6.700000000000E+001   6.600000000000E+001   6.500000000000E+001   6.400000000000E+001   6.300000000000E+001   6.200000000000E+001   6.100000000000E+001 
        6.000000000000E+001 
        8.000000000000E+001   7.900000000000E+001   7.800000000000E+001   7.700000000000E+001   7.600000000000E+001   7.500000000000E+001   7.400000000000E+001   7.300000000000E+001   7.200000000000E+001   7.100000000000E+001 
        7.000000000000E+001   6.900000000000E+001   6.800000000000E+001   6.700000000000E+001   6.600000000000E+001   6.500000000000E+001   6.400000000000E+001   6.300000000000E+001   6.200000000000E+001   6.100000000000E+001 
        6.000000000000E+001 
    INTERNAL IPRN     12 # STRT Layer 4
        8.000000000000E+001   7.900000000000E+001   7.800000000000E+001   7.700000000000E+001   7.600000000000E+001   7.500000000000E+001   7.400000000000E+001   7.300000000000E+001   7.200000000000E+001   7.100000000000E+001 
        7.000000000000E+001   6.900000000000E+001   6.800000000000E+001   6.700000000000E+001   6.600000000000E+001   6.500000000000E+001   6.400000000000E+001   6.300000000000E+001   6.200000000000E+001   6.100000000000E+001 
        6.000000000000E+001 
        8.000000000000E+001   7.900000000000E+001   7.800000000000E+001   7.700000000000E+001   7.600000000000E+001   7.500000000000E+001   7.400000000000E+001   7.300000000000E+001   7.200000000000E+001   7.100000000000E+001 
        7.000000000000E+001   6.900000000000E+001   6.800000000000E+001   6.700000000000E+001   6.600000000000E+001   6.500000000000E+001   6.400000000000E+001   6.300000000000E+001   6.200000000000E+001   6.100000000000E+001 
        6.000000000000E+001 
        8.000000000000E+001   7.900000000000E+001   7.800000000000E+001   7.700000000000E+001   7.600000000000E+001   7.500000000000E+001   7.400000000000E+001   7.300000000000E+001   7.200000000000E+001   7.100000000000E+001 
        7.000000000000E+001   6.900000000000E+001   6.800000000000E+001   6.700000000000E+001   6.600000000000E+001   6.500000000000E+001   6.400000000000E+001   6.300000000000E+001   6.200000000000E+001   6.100000000000E+001 
        6.000000000000E+001 
        8.000000000000E+001   7.900000000000E+001   7.800000000000E+001   7.700000000000E+001   7.600000000000E+001   7.500000000000E+001   7.400000000000E+001   7.300000000000E+001   7.200000000000E+001   7.100000000000E+001 
        7.000000000000E+001   6.900000000000E+001   6.800000000000E+001   6.700000000000E+001   6.600000000000E+001   6.500000000000E+001   6.400000000000E+001   6.300000000000E+001   6.200000000000E+001   6.100000000000E+001 
        6.000000000000E+001 
        8.000000000000E+001   7.900000000000E+001   7.800000000000E+001   7.700000000000E+001   7.600000000000E+001   7.500000000000E+001   7.400000000000E+001   7.300000000000E+001   7.200000000000E+001   7.100000000000E+001 
        7.000000000000E+001   6.900000000000E+001   6.800000000000E+001   6.700000000000E+001   6.600000000000E+001   6.500000000000E+001   6.400000000000E+001   6.300000000000E+001   6.200000000000E+001   6.100000000000E+001 
        6.000000000000E+001 
        8.000000000000E+001   7.900000000000E+001   7.800000000000E+001   7.700000000000E+001   7.600000000000E+001   7.500000000000E+001   7.400000000000E+001   7.300000000000E+001   7.200000000000E+001   7.100000000000E+001 
        7.000000000000E+001   6.900000000000E+001   6.800000000000E+001   6.700000000000E+001   6.600000000000E+001   6.500000000000E+001   6.400000000000E+001   6.300000000000E+001   6.200000000000E+001   6.100000000000E+001 
        6.000000000000E+001 
        8.000000000000E+001   7.900000000000E+001   7.800000000000E+001   7.700000000000E+001   7.600000000000E+001   7.500000000000E+001   7.400000000000E+001   7.300000000000E+001   7.200000000000E+001   7.100000000000E+001 
        7.000000000000E+001   6.900000000000E+001   6.800000000000E+001   6.700000000000E+001   6.600000000000E+001   6.500000000000E+001   6.400000000000E+001   6.300000000000E+001   6.200000000000E+001   6.100000000000E+001 
        6.000000000000E+001 
        8.000000000000E+001   7.900000000000E+001   7.800000000000E+001   7.700000000000E+001   7.600000000000E+001   7.500000000000E+001   7.400000000000E+001   7.300000000000E+001   7.200000000000E+001   7.100000000000E+001 
        7.000000000000E+001   6.900000000000E+001   6.800000000000E+001   6.700000000000E+001   6.600000000000E+001   6.500000000000E+001   6.400000000000E+001   6.300000000000E+001   6.200000000000E+001   6.100000000000E+001 
        6.000000000000E+001 
        8.000000000000E+001   7.900000000000E+001   7.800000000000E+001   7.700000000000E+001   7.600000000000E+001   7.500000000000E+001   7.400000000000E+001   7.300000000000E+001   7.200000000000E+001   7.100000000000E+001 
        7.000000000000E+001   6.900000000000E+001   6.800000000000E+001   6.700000000000E+001   6.600000000000E+001   6.500000000000E+001   6.400000000000E+001   6.300000000000E+001   6.200000000000E+001   6.100000000000E+001 
        6.000000000000E+001 
        8.000000000000E+001   7.900000000000E+001   7.800000000000E+001   7.700000000000E+001   7.600000000000E+001   7.500000000000E+001   7.400000000000E+001   7.300000000000E+001   7.200000000000E+001   7.100000000000E+001 
        7.000000000000E+001   6.900000000000E+001   6.800000000000E+001   6.700000000000E+001   6.600000000000E+001   6.500000000000E+001   6.400000000000E+001   6.300000000000E+001   6.200000000000E+001   6.100000000000E+001 
        6.000000000000E+001 
        8.000000000000E+001   7.900000000000E+001   7.800000000000E+001   7.700000000000E+001   7.600000000000E+001   7.500000000000E+001   7.400000000000E+001   7.300000000000E+001   7.200000000000E+001   7.100000000000E+001 
        7.000000000000E+001   6.900000000000E+001   6.800000000000E+001   6.700000000000E+001   6.600000000000E+001   6.500000000000E+001   6.400000000000E+001   6.300000000000E+001   6.200000000000E+001   6.100000000000E+001 
        6.000000000000E+001 
        8.000000000000E+001   7.900000000000E+001   7.800000000000E+001   7.700000000000E+001   7.600000000000E+001   7.500000000000E+001   7.400000000000E+001   7.300000000000E+001   7.200000000000E+001   7.100000000000E+001 
        7.000000000000E+001   6.900000000000E+001   6.800000000000E+001   6.700000000000E+001   6.600000000000E+001   6.500000000000E+001   6.400000000000E+001   6.300000000000E+001   6.200000000000E+001   6.100000000000E+001 
        6.000000000000E+001 
        8.000000000000E+001   7.900000000000E+001   7.800000000000E+001   7.700000000000E+001   7.600000000000E+001   7.500000000000E+001   7.400000000000E+001   7.300000000000E+001   7.200000000000E+001   7.100000000000E+001 
        7.000000000000E+001   6.900000000000E+001   6.800000000000E+001   6.700000000000E+001   6.600000000000E+001   6.500000000000E+001   6.400000000000E+001   6.300000000000E+001   6.200000000000E+001   6.100000000000E+001 
        6.000000000000E+001 
        8.000000000000E+001   7.900000000000E+001   7.800000000000E+001   7.700000000000E+001   7.600000000000E+001   7.500000000000E+001   7.400000000000E+001   7.300000000000E+001   7.200000000000E+001   7.100000000000E+001 
        7.000000000000E+001   6.900000000000E+001   6.800000000000E+001   6.700000000000E+001   6.600000000000E+001   6.500000000000E+001   6.400000000000E+001   6.300000000000E+001   6.200000000000E+001   6.100000000000E+001 
        6.000000000000E+001 
        8.000000000000E+001   7.900000000000E+001   7.800000000000E+001   7.700000000000E+001   7.600000000000E+001   7.500000000000E+001   7.400000000000E+001   7.300000000000E+001   7.200000000000E+001   7.100000000000E+001 
        7.000000000000E+001   6.900000000000E+001   6.800000000000E+001   6.700000000000E+001   6.600000000000E+001   6.500000000000E+001   6.400000000000E+001   6.300000000000E+001   6.200000000000E+001   6.100000000000E+001 
        6.000000000000E+001 
    INTERNAL IPRN     12 # STRT Layer 5
        8.000000000000E+001   7.900000000000E+001   7.800000000000E+001   7.700000000000E+001   7.600000000000E+001   7.500000000000E+001   7.400000000000E+001   7.300000000000E+001   7.200000000000E+001   7.100000000000E+001 
        7.000000000000E+001   6.900000000000E+001   6.800000000000E+001   6.700000000000E+001   6.600000000000E+001   6.500000000000E+001   6.400000000000E+001   6.300000000000E+001   6.200000000000E+001   6.100000000000E+001 
        6.000000000000E+001 