# CHD: Time-Variant Specified-Head package file created on 2/19/2019 by ModelMuse version 3.10.0.42.
BEGIN OPTIONS
    AUXILIARY IFACE
    BOUNDNAMES
    PRINT_INPUT
    SAVE_FLOWS
END OPTIONS

BEGIN DIMENSIONS
  MAXBOUND   240
END DIMENSIONS

BEGIN PERIOD      1
     1     1    21  6.000000000000E+001      0 'Right_Specified_Head__Layer1'  # Data Set 6: Layer Row Column Shead IFACE boundname
     1     2    21  6.000000000000E+001      0 'Right_Specified_Head__Layer1'  # Data Set 6: Layer Row Column Shead IFACE boundname
     1     3    21  6.000000000000E+001      0 'Right_Specified_Head__Layer1'  # Data Set 6: Layer Row Column Shead IFACE boundname
     1     4    21  6.000000000000E+001      0 'Right_Specified_Head__Layer1'  # Data Set 6: Layer Row Column Shead IFACE boundname
     1     5    21  6.000000000000E+001      0 'Right_Specified_Head__Layer1'  # Data Set 6: Layer Row Column Shead IFACE boundname
     1     6    21  6.000000000000E+001      0 'Right_Specified_Head__Layer1'  # Data Set 6: Layer Row Column Shead IFACE boundname
     1     7    21  6.000000000000E+001      0 'Right_Specified_Head__Layer1'  # Data Set 6: Layer Row Column Shead IFACE boundname
     1     8    21  6.000000000000E+001      0 'Right_Specified_Head__Layer1'  # Data Set 6: Layer Row Column Shead IFACE boundname
     1     9    21  6.000000000000E+001      0 'Right_Specified_Head__Layer1'  # Data Set 6: Layer Row Column Shead IFACE boundname
     1    10    21  6.000000000000E+001      0 'Right_Specified_Head__Layer1'  # Data Set 6: Layer Row Column Shead IFACE boundname
     1    11    21  6.000000000000E+001      0 'Right_Specified_Head__Layer1'  # Data Set 6: Layer Row Column Shead IFACE boundname
     1    12    21  6.000000000000E+001      0 'Right_Specified_Head__Layer1'  # Data Set 6: Layer Row Column Shead IFACE boundname
     1    13    21  6.000000000000E+001      0 'Right_Specified_Head__Layer1'  # Data Set 6: Layer Row Column Shead IFACE boundname
     1    14    21  6.000000000000E+001      0 'Right_Specified_Head__Layer1'  # Data Set 6: Layer Row Column Shead IFACE boundname
     1    15    21  6.000000000000E+001      0 'Right_Specified_Head__Layer1'  # Data Set 6: Layer Row Column Shead IFACE boundname
     2     1    21  6.000000000000E+001      0 'Right_Specified_Head__Layer2'  # Data Set 6: Layer Row Column Shead IFACE boundname
     2     2    21  6.000000000000E+001      0 'Right_Specified_Head__Layer2'  # Data Set 6: Layer Row Column Shead IFACE boundname
     2     3    21  6.000000000000E+001      0 'Right_Specified_Head__Layer2'  # Data Set 6: Layer Row Column Shead IFACE boundname
     2     4    21  6.000000000000E+001      0 'Right_Specified_Head__Layer2'  # Data Set 6: Layer Row Column Shead IFACE boundname
     2     5    21  6.000000000000E+001      0 'Right_Specified_Head__Layer2'  # Data Set 6: Layer Row Column Shead IFACE boundname
     2     6    21  6.000000000000E+001      0 'Right_Specified_Head__Layer2'  # Data Set 6: Layer Row Column Shead IFACE boundname
     2     7    21  6.000000000000E+001      0 'Right_Specified_Head__Layer2'  # Data Set 6: Layer Row Column Shead IFACE boundname
     2     8    21  6.000000000000E+001      0 'Right_Specified_Head__Layer2'  # Data Set 6: Layer Row Column Shead IFACE boundname
     2     9    21  6.000000000000E+001      0 'Right_Specified_Head__Layer2'  # Data Set 6: Layer Row Column Shead IFACE boundname
     2    10    21  6.000000000000E+001      0 'Right_Specified_Head__Layer2'  # Data Set 6: Layer Row Column Shead IFACE boundname
     2    11    21  6.000000000000E+001      0 'Right_Specified_Head__Layer2'  # Data Set 6: Layer Row Column Shead IFACE boundname
     2    12    21  6.000000000000E+001      0 'Right_Specified_Head__Layer2'  # Data Set 6: Layer Row Column Shead IFACE boundname
     2    13    21  6.000000000000E+001      0 'Right_Specified_Head__Layer2'  # Data Set 6: Layer Row Column Shead IFACE boundname
     2    14    21  6.000000000000E+001      0 'Right_Specified_Head__Layer2'  # Data Set 6: Layer Row Column Shead IFACE boundname
     2    15    21  6.000000000000E+001      0 'Right_Specified_Head__Layer2'  # Data Set 6: Layer Row Column Shead IFACE boundname
     3     1    21  6.000000000000E+001      0 'Right_Specified_Head__Layer3'  # Data Set 6: Layer Row Column Shead IFACE boundname
     3     2    21  6.000000000000E+001      0 'Right_Specified_Head__Layer3'  # Data Set 6: Layer Row Column Shead IFACE boundname
     3     3    21  6.000000000000E+001      0 'Right_Specified_Head__Layer3'  # Data Set 6: Layer Row Column Shead IFACE boundname
     3     4    21  6.000000000000E+001      0 'Right_Specified_Head__Layer3'  # Data Set 6: Layer Row Column Shead IFACE boundname
     3     5    21  6.000000000000E+001      0 'Right_Specified_Head__Layer3'  # Data Set 6: Layer Row Column Shead IFACE boundname
     3     6    21  6.000000000000E+001      0 'Right_Specified_Head__Layer3'  # Data Set 6: Layer Row Column Shead IFACE boundname
     3     7    21  6.000000000000E+001      0 'Right_Specified_Head__Layer3'  # Data Set 6: Layer Row Column Shead IFACE boundname
     3     8    21  6.000000000000E+001      0 'Right_Specified_Head__Layer3'  # Data Set 6: Layer Row Column Shead IFACE boundname
     3     9    21  6.000000000000E+001      0 'Right_Specified_Head__Layer3'  # Data Set 6: Layer Row Column Shead IFACE boundname
     3    10    21  6.000000000000E+001      0 'Right_Specified_Head__Layer3'  # Data Set 6: Layer Row Column Shead IFACE boundname
     3    11    21  6.000000000000E+001      0 'Right_Specified_Head__Layer3'  # Data Set 6: Layer Row Column Shead IFACE boundname
     3    12    21  6.000000000000E+001      0 'Right_Specified_Head__Layer3'  # Data Set 6: Layer Row Column Shead IFACE boundname
     3    13    21  6.000000000000E+001      0 'Right_Specified_Head__Layer3'  # Data Set 6: Layer Row Column Shead IFACE boundname
     3    14    21  6.000000000000E+001      0 'Right_Specified_Head__Layer3'  # Data Set 6: Layer Row Column Shead IFACE boundname
     3    15    21  6.000000000000E+001      0 'Right_Specified_Head__Layer3'  # Data Set 6: Layer Row Column Shead IFACE boundname
     4     1    21  6.000000000000E+001      0 'Right_Specified_Head__Layer4'  # Data Set 6: Layer Row Column Shead IFACE boundname
     4     2    21  6.000000000000E+001      0 'Right_Specified_Head__Layer4'  # Data Set 6: Layer Row Column Shead IFACE boundname
     4     3    21  6.000000000000E+001      0 'Right_Specified_Head__Layer4'  # Data Set 6: Layer Row Column Shead IFACE boundname
     4     4    21  6.000000000000E+001      0 'Right_Specified_Head__Layer4'  # Data Set 6: Layer Row Column Shead IFACE boundname
     4     5    21  6.000000000000E+001      0 'Right_Specified_Head__Layer4'  # Data Set 6: Layer Row Column Shead IFACE boundname
     4     6    21  6.000000000000E+001      0 'Right_Specified_Head__Layer4'  # Data Set 6: Layer Row Column Shead IFACE boundname
     4     7    21  6.000000000000E+001      0 'Right_Specified_Head__Layer4'  # Data Set 6: Layer Row Column Shead IFACE boundname
     4     8    21  6.000000000000E+001      0 'Right_Specified_Head__Layer4'  # Data Set 6: Layer Row Column Shead IFACE boundname
     4     9    21  6.000000000000E+001      0 'Right_Specified_Head__Layer4'  # Data Set 6: Layer Row Column Shead IFACE boundname
     4    10    21  6.000000000000E+001      0 'Right_Specified_Head__Layer4'  # Data Set 6: Layer Row Column Shead IFACE boundname
     4    11    21  6.000000000000E+001      0 'Right_Specified_Head__Layer4'  # Data Set 6: Layer Row Column Shead IFACE boundname
     4    12    21  6.000000000000E+001      0 'Right_Specified_Head__Layer4'  # Data Set 6: Layer Row Column Shead IFACE boundname
     4    13    21  6.000000000000E+001      0 'Right_Specified_Head__Layer4'  # Data Set 6: Layer Row Column Shead IFACE boundname
     4    14    21  6.000000000000E+001      0 'Right_Specified_Head__Layer4'  # Data Set 6: Layer Row Column Shead IFACE boundname
     4    15    21  6.000000000000E+001      0 'Right_Specified_Head__Layer4'  # Data Set 6: Layer Row Column Shead IFACE boundname
     5     1    21  6.000000000000E+001      0 'Right_Specified_Head__Layer5'  # Data Set 6: Layer Row Column Shead IFACE boundname
     5     2    21  6.000000000000E+001      0 'Right_Specified_Head__Layer5'  # Data Set 6: Layer Row Column Shead IFACE boundname
     5     3    21  6.000000000000E+001      0 'Right_Specified_Head__Layer5'  # Data Set 6: Layer Row Column Shead IFACE boundname
     5     4    21  6.000000000000E+001      0 'Right_Specified_Head__Layer5'  # Data Set 6: Layer Row Column Shead IFACE boundname
     5     5    21  6.000000000000E+001      0 'Right_Specified_Head__Layer5'  # Data Set 6: Layer Row Column Shead IFACE boundname
     5     6    21  6.000000000000E+001      0 'Right_Specified_Head__Layer5'  # Data Set 6: Layer Row Column Shead IFACE boundname
     5     7    21  6.000000000000E+001      0 'Right_Specified_Head__Layer5'  # Data Set 6: Layer Row Column Shead IFACE boundname
     5     8    21  6.000000000000E+001      0 'Right_Specified_Head__Layer5'  # Data Set 6: Layer Row Column Shead IFACE boundname
     5     9    21  6.000000000000E+001      0 'Right_Specified_Head__Layer5'  # Data Set 6: Layer Row Column Shead IFACE boundname
     5    10    21  6.000000000000E+001      0 'Right_Specified_Head__Layer5'  # Data Set 6: Layer Row Column Shead IFACE boundname
     5    11    21  6.000000000000E+001      0 'Right_Specified_Head__Layer5'  # Data Set 6: Layer Row Column Shead IFACE boundname
     5    12    21  6.000000000000E+001      0 'Right_Specified_Head__Layer5'  # Data Set 6: Layer Row Column Shead IFACE boundname
     5    13    21  6.000000000000E+001      0 'Right_Specified_Head__Layer5'  # Data Set 6: Layer Row Column Shead IFACE boundname
     5    14    21  6.000000000000E+001      0 'Right_Specified_Head__Layer5'  # Data Set 6: Layer Row Column Shead IFACE boundname
     5    15    21  6.000000000000E+001      0 'Right_Specified_Head__Layer5'  # Data Set 6: Layer Row Column Shead IFACE boundname
     6     1    21  6.000000000000E+001      0 'Right_Specified_Head__Layer6'  # Data Set 6: Layer Row Column Shead IFACE boundname
     6     2    21  6.000000000000E+001      0 'Right_Specified_Head__Layer6'  # Data Set 6: Layer Row Column Shead IFACE boundname
     6     3    21  6.000000000000E+001      0 'Right_Specified_Head__Layer6'  # Data Set 6: Layer Row Column Shead IFACE boundname
     6     4    21  6.000000000000E+001      0 'Right_Specified_Head__Layer6'  # Data Set 6: Layer Row Column Shead IFACE boundname
     6     5    21  6.000000000000E+001      0 'Right_Specified_Head__Layer6'  # Data Set 6: Layer Row Column Shead IFACE boundname
     6     6    21  6.000000000000E+001      0 'Right_Specified_Head__Layer6'  # Data Set 6: Layer Row Column Shead IFACE boundname
     6     7    21  6.000000000000E+001      0 'Right_Specified_Head__Layer6'  # Data Set 6: Layer Row Column Shead IFACE boundname
     6     8    21  6.000000000000E+001      0 'Right_Specified_Head__Layer6'  # Data Set 6: Layer Row Column Shead IFACE boundname
     6     9    21  6.000000000000E+001      0 'Right_Specified_Head__Layer6'  # Data Set 6: Layer Row Column Shead IFACE boundname
     6    10    21  6.000000000000E+001      0 'Right_Specified_Head__Layer6'  # Data Set 6: Layer Row Column Shead IFACE boundname
     6    11    21  6.000000000000E+001      0 'Right_Specified_Head__Layer6'  # Data Set 6: Layer Row Column Shead IFACE boundname
     6    12    21  6.000000000000E+001      0 'Right_Specified_Head__Layer6'  # Data Set 6: Layer Row Column Shead IFACE boundname
     6    13    21  6.000000000000E+001      0 'Right_Specified_Head__Layer6'  # Data Set 6: Layer Row Column Shead IFACE boundname
     6    14    21  6.000000000000E+001      0 'Right_Specified_Head__Layer6'  # Data Set 6: Layer Row Column Shead IFACE boundname
     6    15    21  6.000000000000E+001      0 'Right_Specified_Head__Layer6'  # Data Set 6: Layer Row Column Shead IFACE boundname
     7     1    21  6.000000000000E+001      0 'Right_Specified_Head__Layer7'  # Data Set 6: Layer Row Column Shead IFACE boundname
     7     2    21  6.000000000000E+001      0 'Right_Specified_Head__Layer7'  # Data Set 6: Layer Row Column Shead IFACE boundname
     7     3    21  6.000000000000E+001      0 'Right_Specified_Head__Layer7'  # Data Set 6: Layer Row Column Shead IFACE boundname
     7     4    21  6.000000000000E+001      0 'Right_Specified_Head__Layer7'  # Data Set 6: Layer Row Column Shead IFACE boundname
     7     5    21  6.000000000000E+001      0 'Right_Specified_Head__Layer7'  # Data Set 6: Layer Row Column Shead IFACE boundname
     7     6    21  6.000000000000E+001      0 'Right_Specified_Head__Layer7'  # Data Set 6: Layer Row Column Shead IFACE boundname
     7     7    21  6.000000000000E+001      0 'Right_Specified_Head__Layer7'  # Data Set 6: Layer Row Column Shead IFACE boundname
     7     8    21  6.000000000000E+001      0 'Right_Specified_Head__Layer7'  # Data Set 6: Layer Row Column Shead IFACE boundname
     7     9    21  6.000000000000E+001      0 'Right_Specified_Head__Layer7'  # Data Set 6: Layer Row Column Shead IFACE boundname
     7    10    21  6.000000000000E+001      0 'Right_Specified_Head__Layer7'  # Data Set 6: Layer Row Column Shead IFACE boundname
     7    11    21  6.000000000000E+001      0 'Right_Specified_Head__Layer7'  # Data Set 6: Layer Row Column Shead IFACE boundname
     7    12    21  6.000000000000E+001      0 'Right_Specified_Head__Layer7'  # Data Set 6: Layer Row Column Shead IFACE boundname
     7    13    21  6.000000000000E+001      0 'Right_Specified_Head__Layer7'  # Data Set 6: Layer Row Column Shead IFACE boundname
     7    14    21  6.000000000000E+001      0 'Right_Specified_Head__Layer7'  # Data Set 6: Layer Row Column Shead IFACE boundname
     7    15    21  6.000000000000E+001      0 'Right_Specified_Head__Layer7'  # Data Set 6: Layer Row Column Shead IFACE boundname
     8     1    21  6.000000000000E+001      0 'Right_Specified_Head__Layer8'  # Data Set 6: Layer Row Column Shead IFACE boundname
     8     2    21  6.000000000000E+001      0 'Right_Specified_Head__Layer8'  # Data Set 6: Layer Row Column Shead IFACE boundname
     8     3    21  6.000000000000E+001      0 'Right_Specified_Head__Layer8'  # Data Set 6: Layer Row Column Shead IFACE boundname
     8     4    21  6.000000000000E+001      0 'Right_Specified_Head__Layer8'  # Data Set 6: Layer Row Column Shead IFACE boundname
     8     5    21  6.000000000000E+001      0 'Right_Specified_Head__Layer8'  # Data Set 6: Layer Row Column Shead IFACE boundname
     8     6    21  6.000000000000E+001      0 'Right_Specified_Head__Layer8'  # Data Set 6: Layer Row Column Shead IFACE boundname
     8     7    21  6.000000000000E+001      0 'Right_Specified_Head__Layer8'  # Data Set 6: Layer Row Column Shead IFACE boundname
     8     8    21  6.000000000000E+001      0 'Right_Specified_Head__Layer8'  # Data Set 6: Layer Row Column Shead IFACE boundname
     8     9    21  6.000000000000E+001      0 'Right_Specified_Head__Layer8'  # Data Set 6: Layer Row Column Shead IFACE boundname
     8    10    21  6.000000000000E+001      0 'Right_Specified_Head__Layer8'  # Data Set 6: Layer Row Column Shead IFACE boundname
     8    11    21  6.000000000000E+001      0 'Right_Specified_Head__Layer8'  # Data Set 6: Layer Row Column Shead IFACE boundname
     8    12    21  6.000000000000E+001      0 'Right_Specified_Head__Layer8'  # Data Set 6: Layer Row Column Shead IFACE boundname
     8    13    21  6.000000000000E+001      0 'Right_Specified_Head__Layer8'  # Data Set 6: Layer Row Column Shead IFACE boundname
     8    14    21  6.000000000000E+001      0 'Right_Specified_Head__Layer8'  # Data Set 6: Layer Row Column Shead IFACE boundname
     8    15    21  6.000000000000E+001      0 'Right_Specified_Head__Layer8'  # Data Set 6: Layer Row Column Shead IFACE boundname
     1     1     1  8.000000000000E+001      0 'LeftChdLayer1'  # Data Set 6: Layer Row Column Shead IFACE boundname
     1     2     1  8.000000000000E+001      0 'LeftChdLayer1'  # Data Set 6: Layer Row Column Shead IFACE boundname
     1     3     1  8.000000000000E+001      0 'LeftChdLayer1'  # Data Set 6: Layer Row Column Shead IFACE boundname
     1     4     1  8.000000000000E+001      0 'LeftChdLayer1'  # Data Set 6: Layer Row Column Shead IFACE boundname
     1     5     1  8.000000000000E+001      0 'LeftChdLayer1'  # Data Set 6: Layer Row Column Shead IFACE boundname
     1     6     1  8.000000000000E+001      0 'LeftChdLayer1'  # Data Set 6: Layer Row Column Shead IFACE boundname
     1     7     1  8.000000000000E+001      0 'LeftChdLayer1'  # Data Set 6: Layer Row Column Shead IFACE boundname
     1     8     1  8.000000000000E+001      0 'LeftChdLayer1'  # Data Set 6: Layer Row Column Shead IFACE boundname
     1     9     1  8.000000000000E+001      0 'LeftChdLayer1'  # Data Set 6: Layer Row Column Shead IFACE boundname
     1    10     1  8.000000000000E+001      0 'LeftChdLayer1'  # Data Set 6: Layer Row Column Shead IFACE boundname
     1    11     1  8.000000000000E+001      0 'LeftChdLayer1'  # Data Set 6: Layer Row Column Shead IFACE boundname
     1    12     1  8.000000000000E+001      0 'LeftChdLayer1'  # Data Set 6: Layer Row Column Shead IFACE boundname
     1    13     1  8.000000000000E+001      0 'LeftChdLayer1'  # Data Set 6: Layer Row Column Shead IFACE boundname
     1    14     1  8.000000000000E+001      0 'LeftChdLayer1'  # Data Set 6: Layer Row Column Shead IFACE boundname
     1    15     1  8.000000000000E+001      0 'LeftChdLayer1'  # Data Set 6: Layer Row Column Shead IFACE boundname
     2     1     1  8.000000000000E+001      0 'LeftChdLayer2'  # Data Set 6: Layer Row Column Shead IFACE boundname
     2     2     1  8.000000000000E+001      0 'LeftChdLayer2'  # Data Set 6: Layer Row Column Shead IFACE boundname
     2     3     1  8.000000000000E+001      0 'LeftChdLayer2'  # Data Set 6: Layer Row Column Shead IFACE boundname
     2     4     1  8.000000000000E+001      0 'LeftChdLayer2'  # Data Set 6: Layer Row Column Shead IFACE boundname
     2     5     1  8.000000000000E+001      0 'LeftChdLayer2'  # Data Set 6: Layer Row Column Shead IFACE boundname
     2     6     1  8.000000000000E+001      0 'LeftChdLayer2'  # Data Set 6: Layer Row Column Shead IFACE boundname
     2     7     1  8.000000000000E+001      0 'LeftChdLayer2'  # Data Set 6: Layer Row Column Shead IFACE boundname
     2     8     1  8.000000000000E+001      0 'LeftChdLayer2'  # Data Set 6: Layer Row Column Shead IFACE boundname
     2     9     1  8.000000000000E+001      0 'LeftChdLayer2'  # Data Set 6: Layer Row Column Shead IFACE boundname
     2    10     1  8.000000000000E+001      0 'LeftChdLayer2'  # Data Set 6: Layer Row Column Shead IFACE boundname
     2    11     1  8.000000000000E+001      0 'LeftChdLayer2'  # Data Set 6: Layer Row Column Shead IFACE boundname
     2    12     1  8.000000000000E+001      0 'LeftChdLayer2'  # Data Set 6: Layer Row Column Shead IFACE boundname
     2    13     1  8.000000000000E+001      0 'LeftChdLayer2'  # Data Set 6: Layer Row Column Shead IFACE boundname
     2    14     1  8.000000000000E+001      0 'LeftChdLayer2'  # Data Set 6: Layer Row Column Shead IFACE boundname
     2    15     1  8.000000000000E+001      0 'LeftChdLayer2'  # Data Set 6: Layer Row Column Shead IFACE boundname
     3     1     1  8.000000000000E+001      0 'LeftChdLayer3'  # Data Set 6: Layer Row Column Shead IFACE boundname
     3     2     1  8.000000000000E+001      0 'LeftChdLayer3'  # Data Set 6: Layer Row Column Shead IFACE boundname
     3     3     1  8.000000000000E+001      0 'LeftChdLayer3'  # Data Set 6: Layer Row Column Shead IFACE boundname
     3     4     1  8.000000000000E+001      0 'LeftChdLayer3'  # Data Set 6: Layer Row Column Shead IFACE boundname
     3     5     1  8.000000000000E+001      0 'LeftChdLayer3'  # Data Set 6: Layer Row Column Shead IFACE boundname
     3     6     1  8.000000000000E+001      0 'LeftChdLayer3'  # Data Set 6: Layer Row Column Shead IFACE boundname
     3     7     1  8.000000000000E+001      0 'LeftChdLayer3'  # Data Set 6: Layer Row Column Shead IFACE boundname
     3     8     1  8.000000000000E+001      0 'LeftChdLayer3'  # Data Set 6: Layer Row Column Shead IFACE boundname
     3     9     1  8.000000000000E+001      0 'LeftChdLayer3'  # Data Set 6: Layer Row Column Shead IFACE boundname
     3    10     1  8.000000000000E+001      0 'LeftChdLayer3'  # Data Set 6: Layer Row Column Shead IFACE boundname
     3    11     1  8.000000000000E+001      0 'LeftChdLayer3'  # Data Set 6: Layer Row Column Shead IFACE boundname
     3    12     1  8.000000000000E+001      0 'LeftChdLayer3'  # Data Set 6: Layer Row Column Shead IFACE boundname
     3    13     1  8.000000000000E+001      0 'LeftChdLayer3'  # Data Set 6: Layer Row Column Shead IFACE boundname
     3    14     1  8.000000000000E+001      0 'LeftChdLayer3'  # Data Set 6: Layer Row Column Shead IFACE boundname
     3    15     1  8.000000000000E+001      0 'LeftChdLayer3'  # Data Set 6: Layer Row Column Shead IFACE boundname
     4     1     1  8.000000000000E+001      0 'LeftChdLayer4'  # Data Set 6: Layer Row Column Shead IFACE boundname
     4     2     1  8.000000000000E+001      0 'LeftChdLayer4'  # Data Set 6: Layer Row Column Shead IFACE boundname
     4     3     1  8.000000000000E+001      0 'LeftChdLayer4'  # Data Set 6: Layer Row Column Shead IFACE boundname
     4     4     1  8.000000000000E+001      0 'LeftChdLayer4'  # Data Set 6: Layer Row Column Shead IFACE boundname
     4     5     1  8.000000000000E+001      0 'LeftChdLayer4'  # Data Set 6: Layer Row Column Shead IFACE boundname
     4     6     1  8.000000000000E+001      0 'LeftChdLayer4'  # Data Set 6: Layer Row Column Shead IFACE boundname
     4     7     1  8.000000000000E+001      0 'LeftChdLayer4'  # Data Set 6: Layer Row Column Shead IFACE boundname
     4     8     1  8.000000000000E+001      0 'LeftChdLayer4'  # Data Set 6: Layer Row Column Shead IFACE boundname
     4     9     1  8.000000000000E+001      0 'LeftChdLayer4'  # Data Set 6: Layer Row Column Shead IFACE boundname
     4    10     1  8.000000000000E+001      0 'LeftChdLayer4'  # Data Set 6: Layer Row Column Shead IFACE boundname
     4    11     1  8.000000000000E+001      0 'LeftChdLayer4'  # Data Set 6: Layer Row Column Shead IFACE boundname
     4    12     1  8.000000000000E+001      0 'LeftChdLayer4'  # Data Set 6: Layer Row Column Shead IFACE boundname
     4    13     1  8.000000000000E+001      0 'LeftChdLayer4'  # Data Set 6: Layer Row Column Shead IFACE boundname
     4    14     1  8.000000000000E+001      0 'LeftChdLayer4'  # Data Set 6: Layer Row Column Shead IFACE boundname
     4    15     1  8.000000000000E+001      0 'LeftChdLayer4'  # Data Set 6: Layer Row Column Shead IFACE boundname
     5     1     1  8.000000000000E+001      0 'LeftChdLayer5'  # Data Set 6: Layer Row Column Shead IFACE boundname
     5     2     1  8.000000000000E+001      0 'LeftChdLayer5'  # Data Set 6: Layer Row Column Shead IFACE boundname
     5     3     1  8.000000000000E+001      0 'LeftChdLayer5'  # Data Set 6: Layer Row Column Shead IFACE boundname
     5     4     1  8.000000000000E+001      0 'LeftChdLayer5'  # Data Set 6: Layer Row Column Shead IFACE boundname
     5     5     1  8.000000000000E+001      0 'LeftChdLayer5'  # Data Set 6: Layer Row Column Shead IFACE boundname
     5     6     1  8.000000000000E+001      0 'LeftChdLayer5'  # Data Set 6: Layer Row Column Shead IFACE boundname
     5     7     1  8.000000000000E+001      0 'LeftChdLayer5'  # Data Set 6: Layer Row Column Shead IFACE boundname
     5     8     1  8.000000000000E+001      0 'LeftChdLayer5'  # Data Set 6: Layer Row Column Shead IFACE boundname
     5     9     1  8.000000000000E+001      0 'LeftChdLayer5'  # Data Set 6: Layer Row Column Shead IFACE boundname
     5    10     1  8.000000000000E+001      0 'LeftChdLayer5'  # Data Set 6: Layer Row Column Shead IFACE boundname
     5    11     1  8.000000000000E+001      0 'LeftChdLayer5'  # Data Set 6: Layer Row Column Shead IFACE boundname
     5    12     1  8.000000000000E+001      0 'LeftChdLayer5'  # Data Set 6: Layer Row Column Shead IFACE boundname
     5    13     1  8.000000000000E+001      0 'LeftChdLayer5'  # Data Set 6: Layer Row Column Shead IFACE boundname
     5    14     1  8.000000000000E+001      0 'LeftChdLayer5'  # Data Set 6: Layer Row Column Shead IFACE boundname
     5    15     1  8.000000000000E+001      0 'LeftChdLayer5'  # Data Set 6: Layer Row Column Shead IFACE boundname
     6     1     1  8.000000000000E+001      0 'LeftChdLayer6'  # Data Set 6: Layer Row Column Shead IFACE boundname
     6     2     1  8.000000000000E+001      0 'LeftChdLayer6'  # Data Set 6: Layer Row Column Shead IFACE boundname
     6     3     1  8.000000000000E+001      0 'LeftChdLayer6'  # Data Set 6: Layer Row Column Shead IFACE boundname
     6     4     1  8.000000000000E+001      0 'LeftChdLayer6'  # Data Set 6: Layer Row Column Shead IFACE boundname
     6     5     1  8.000000000000E+001      0 'LeftChdLayer6'  # Data Set 6: Layer Row Column Shead IFACE boundname
     6     6     1  8.000000000000E+001      0 'LeftChdLayer6'  # Data Set 6: Layer Row Column Shead IFACE boundname
     6     7     1  8.000000000000E+001      0 'LeftChdLayer6'  # Data Set 6: Layer Row Column Shead IFACE boundname
     6     8     1  8.000000000000E+001      0 'LeftChdLayer6'  # Data Set 6: Layer Row Column Shead IFACE boundname
     6     9     1  8.000000000000E+001      0 'LeftChdLayer6'  # Data Set 6: Layer Row Column Shead IFACE boundname
     6    10     1  8.000000000000E+001      0 'LeftChdLayer6'  # Data Set 6: Layer Row Column Shead IFACE boundname
     6    11     1  8.000000000000E+001      0 'LeftChdLayer6'  # Data Set 6: Layer Row Column Shead IFACE boundname
     6    12     1  8.000000000000E+001      0 'LeftChdLayer6'  # Data Set 6: Layer Row Column Shead IFACE boundname
     6    13     1  8.000000000000E+001      0 'LeftChdLayer6'  # Data Set 6: Layer Row Column Shead IFACE boundname
     6    14     1  8.000000000000E+001      0 'LeftChdLayer6'  # Data Set 6: Layer Row Column Shead IFACE boundname
     6    15     1  8.000000000000E+001      0 'LeftChdLayer6'  # Data Set 6: Layer Row Column Shead IFACE boundname
     7     1     1  8.000000000000E+001      0 'LeftChdLayer7'  # Data Set 6: Layer Row Column Shead IFACE boundname
     7     2     1  8.000000000000E+001      0 'LeftChdLayer7'  # Data Set 6: Layer Row Column Shead IFACE boundname
     7     3     1  8.000000000000E+001      0 'LeftChdLayer7'  # Data Set 6: Layer Row Column Shead IFACE boundname
     7     4     1  8.000000000000E+001      0 'LeftChdLayer7'  # Data Set 6: Layer Row Column Shead IFACE boundname
     7     5     1  8.000000000000E+001      0 'LeftChdLayer7'  # Data Set 6: Layer Row Column Shead IFACE boundname
     7     6     1  8.000000000000E+001      0 'LeftChdLayer7'  # Data Set 6: Layer Row Column Shead IFACE boundname
     7     7     1  8.000000000000E+001      0 'LeftChdLayer7'  # Data Set 6: Layer Row Column Shead IFACE boundname
     7     8     1  8.000000000000E+001      0 'LeftChdLayer7'  # Data Set 6: Layer Row Column Shead IFACE boundname
     7     9     1  8.000000000000E+001      0 'LeftChdLayer7'  # Data Set 6: Layer Row Column Shead IFACE boundname
     7    10     1  8.000000000000E+001      0 'LeftChdLayer7'  # Data Set 6: Layer Row Column Shead IFACE boundname
     7    11     1  8.000000000000E+001      0 'LeftChdLayer7'  # Data Set 6: Layer Row Column Shead IFACE boundname
     7    12     1  8.000000000000E+001      0 'LeftChdLayer7'  # Data Set 6: Layer Row Column Shead IFACE boundname
     7    13     1  8.000000000000E+001      0 'LeftChdLayer7'  # Data Set 6: Layer Row Column Shead IFACE boundname
     7    14     1  8.000000000000E+001      0 'LeftChdLayer7'  # Data Set 6: Layer Row Column Shead IFACE boundname
     7    15     1  8.000000000000E+001      0 'LeftChdLayer7'  # Data Set 6: Layer Row Column Shead IFACE boundname
     8     1     1  8.000000000000E+001      0 'LeftChdLayer8'  # Data Set 6: Layer Row Column Shead IFACE boundname
     8     2     1  8.000000000000E+001      0 'LeftChdLayer8'  # Data Set 6: Layer Row Column Shead IFACE boundname
     8     3     1  8.000000000000E+001      0 'LeftChdLayer8'  # Data Set 6: Layer Row Column Shead IFACE boundname
     8     4     1  8.000000000000E+001      0 'LeftChdLayer8'  # Data Set 6: Layer Row Column Shead IFACE boundname
     8     5     1  8.000000000000E+001      0 'LeftChdLayer8'  # Data Set 6: Layer Row Column Shead IFACE boundname
     8     6     1  8.000000000000E+001      0 'LeftChdLayer8'  # Data Set 6: Layer Row Column Shead IFACE boundname
     8     7     1  8.000000000000E+001      0 'LeftChdLayer8'  # Data Set 6: Layer Row Column Shead IFACE boundname
     8     8     1  8.000000000000E+001      0 'LeftChdLayer8'  # Data Set 6: Layer Row Column Shead IFACE boundname
     8     9     1  8.000000000000E+001      0 'LeftChdLayer8'  # Data Set 6: Layer Row Column Shead IFACE boundname
     8    10     1  8.000000000000E+001      0 'LeftChdLayer8'  # Data Set 6: Layer Row Column Shead IFACE boundname
     8    11     1  8.000000000000E+001      0 'LeftChdLayer8'  # Data Set 6: Layer Row Column Shead IFACE boundname
     8    12     1  8.000000000000E+001      0 'LeftChdLayer8'  # Data Set 6: Layer Row Column Shead IFACE boundname
     8    13     1  8.000000000000E+001      0 'LeftChdLayer8'  # Data Set 6: Layer Row Column Shead IFACE boundname