# Output Control file created on 2/19/2019 by ModelMuse version 3.10.0.42.
BEGIN OPTIONS
  BUDGET FILEOUT   ImportedP2_nonequilibrium.cbc
  HEAD FILEOUT     ImportedP2_nonequilibrium.bhd
END OPTIONS

BEGIN PERIOD      1
  SAVE HEAD ALL
  PRINT BUDGET ALL
  SAVE BUDGET ALL
END PERIOD 

BEGIN PERIOD      2
  SAVE HEAD ALL
  PRINT BUDGET ALL
  SAVE BUDGET ALL
END PERIOD 

BEGIN PERIOD      3
  SAVE HEAD ALL
  PRINT BUDGET ALL
  SAVE BUDGET ALL
END PERIOD 

