BEGIN TIMING
  TDIS6 ImportedP2_nonequilibrium.tdis
END TIMING

BEGIN MODELS
  GWF6 ImportedP2_nonequilibrium.nam MODFLOW
END MODELS

BEGIN EXCHANGES
END EXCHANGES

BEGIN SOLUTIONGROUP     1
  MXITER     1
  IMS6 ImportedP2_nonequilibrium.ims MODFLOW
END SOLUTIONGROUP

