# MT3DMS Benchmark Test Problem #1
# 1D UNIFORM FLOW FIELD
# Basic Package file created on 2/19/2019 by ModelMuse version 3.10.0.43.
FREE XSECTION  # OPTIONS
INTERNAL 1 (FREE)        5 # IBOUND
     1     1     1     1     1     1     1     1     1     1
     1     1     1     1     1     1     1     1     1     1
     1     1     1     1     1     1     1     1     1     1
     1     1     1     1     1     1     1     1     1     1
     1     1     1     1     1     1     1     1     1     1
     1     1     1     1     1     1     1     1     1     1
     1     1     1     1     1     1     1     1     1     1
     1     1     1     1     1     1     1     1     1     1
     1     1     1     1     1     1     1     1     1     1
     1     1     1     1     1     1     1     1     1     1
     1
  9.999900000000E+002  # HNOFLO
INTERNAL 1.0 (FREE)       12 # STRT
  7.000000000000E+000   7.000000000000E+000   7.000000000000E+000   7.000000000000E+000   7.000000000000E+000   7.000000000000E+000   7.000000000000E+000   7.000000000000E+000   7.000000000000E+000   7.000000000000E+000 
  7.000000000000E+000   7.000000000000E+000   7.000000000000E+000   7.000000000000E+000   7.000000000000E+000   6.000000000000E+000   6.000000000000E+000   6.000000000000E+000   6.000000000000E+000   6.000000000000E+000 
  6.000000000000E+000   6.000000000000E+000   6.000000000000E+000   6.000000000000E+000   6.000000000000E+000   6.000000000000E+000   6.000000000000E+000   6.000000000000E+000   6.000000000000E+000   6.000000000000E+000 
  5.000000000000E+000   5.000000000000E+000   5.000000000000E+000   5.000000000000E+000   5.000000000000E+000   5.000000000000E+000   5.000000000000E+000   5.000000000000E+000   5.000000000000E+000   5.000000000000E+000 
  5.000000000000E+000   5.000000000000E+000   5.000000000000E+000   5.000000000000E+000   5.000000000000E+000   4.000000000000E+000   4.000000000000E+000   4.000000000000E+000   4.000000000000E+000   4.000000000000E+000 
  4.000000000000E+000   4.000000000000E+000   4.000000000000E+000   4.000000000000E+000   4.000000000000E+000   4.000000000000E+000   4.000000000000E+000   4.000000000000E+000   4.000000000000E+000   4.000000000000E+000 
  3.000000000000E+000   3.000000000000E+000   3.000000000000E+000   3.000000000000E+000   3.000000000000E+000   3.000000000000E+000   3.000000000000E+000   3.000000000000E+000   3.000000000000E+000   3.000000000000E+000 
  3.000000000000E+000   3.000000000000E+000   3.000000000000E+000   3.000000000000E+000   3.000000000000E+000   2.000000000000E+000   2.000000000000E+000   2.000000000000E+000   2.000000000000E+000   2.000000000000E+000 
  2.000000000000E+000   2.000000000000E+000   2.000000000000E+000   2.000000000000E+000   2.000000000000E+000   2.000000000000E+000   2.000000000000E+000   2.000000000000E+000   2.000000000000E+000   2.000000000000E+000 
  1.000000000000E+000   1.000000000000E+000   1.000000000000E+000   1.000000000000E+000   1.000000000000E+000   1.000000000000E+000   1.000000000000E+000   1.000000000000E+000   1.000000000000E+000   1.000000000000E+000 
  1.000000000000E+000 
