# Name File for MODFLOW created on 2/19/2019 by ModelMuse Version 3.10.0.43
LIST             11 ImportedP1_Case1b.lst REPLACE
DATA(BINARY)      9 ImportedP1_Case1b.cbc REPLACE
DIS              12 ImportedP1_Case1b.dis OLD
BAS6             13 ImportedP1_Case1b.bas OLD
OC               39 ImportedP1_Case1b.oc OLD
DATA             37 ImportedP1_Case1b.fhd REPLACE
DATA             38 ImportedP1_Case1b.fdn REPLACE
PCG              18 ImportedP1_Case1b.pcg OLD
BCF6             64 ImportedP1_Case1b.bcf OLD
LMT6            135 ImportedP1_Case1b.lmt OLD
DATA(BINARY)    136 ImportedP1_Case1b.ftl REPLACE
CHD              17 ImportedP1_Case1b.chd OLD
