BEGIN options
  PRINT_INPUT
  PRINT_FLOWS
  SAVE_FLOWS
END options

BEGIN dimensions
  MAXBOUND  101
  NSEG  1
END dimensions

BEGIN period  1
  
  1 1 2      60.00000000       0.00000000      10.00000000       1.00000000
  1 1 3      60.00000000       0.00000000      10.00000000       1.00000000
  1 1 4      60.00000000       0.00000000      10.00000000       1.00000000
  1 1 5      60.00000000       0.00000000      10.00000000       1.00000000
  1 1 6      60.00000000       0.00000000      10.00000000       1.00000000
  1 1 7      60.00000000       0.00000000      10.00000000       1.00000000
  1 1 8      60.00000000       0.00000000      10.00000000       1.00000000
  1 1 9      60.00000000       0.00000000      10.00000000       1.00000000
  1 1 10      60.00000000       0.00000000      10.00000000       1.00000000
  1 1 11      60.00000000       0.00000000      10.00000000       1.00000000
  1 1 12      60.00000000       0.00000000      10.00000000       1.00000000
  1 1 13      60.00000000       0.00000000      10.00000000       1.00000000
  1 1 14      60.00000000       0.00000000      10.00000000       1.00000000
  1 1 15      60.00000000       0.00000000      10.00000000       1.00000000
  1 1 16      60.00000000       0.00000000      10.00000000       1.00000000
  1 1 17      60.00000000       0.00000000      10.00000000       1.00000000
  1 1 18      60.00000000       0.00000000      10.00000000       1.00000000
  1 1 19      60.00000000       0.00000000      10.00000000       1.00000000
  1 1 20      60.00000000       0.00000000      10.00000000       1.00000000
  1 1 21      60.00000000       0.00000000      10.00000000       1.00000000
  1 1 22      60.00000000       0.00000000      10.00000000       1.00000000
  1 1 23      60.00000000       0.00000000      10.00000000       1.00000000
  1 1 24      60.00000000       0.00000000      10.00000000       1.00000000
  1 1 25      60.00000000       0.00000000      10.00000000       1.00000000
  1 1 26      60.00000000       0.00000000      10.00000000       1.00000000
  1 1 27      60.00000000       0.00000000      10.00000000       1.00000000
  1 1 28      60.00000000       0.00000000      10.00000000       1.00000000
  1 1 29      60.00000000       0.00000000      10.00000000       1.00000000
  1 1 30      60.00000000       0.00000000      10.00000000       1.00000000
  1 1 31      60.00000000       0.00000000      10.00000000       1.00000000
  1 1 32      60.00000000       0.00000000      10.00000000       1.00000000
  1 1 33      60.00000000       0.00000000      10.00000000       1.00000000
  1 1 34      60.00000000       0.00000000      10.00000000       1.00000000
  1 1 35      60.00000000       0.00000000      10.00000000       1.00000000
  1 1 36      60.00000000       0.00000000      10.00000000       1.00000000
  1 1 37      60.00000000       0.00000000      10.00000000       1.00000000
  1 1 38      60.00000000       0.00000000      10.00000000       1.00000000
  1 1 39      60.00000000       0.00000000      10.00000000       1.00000000
  1 1 40      60.00000000       0.00000000      10.00000000       1.00000000
  1 1 41      60.00000000       0.00000000      10.00000000       1.00000000
  1 1 42      60.00000000       0.00000000      10.00000000       1.00000000
  1 1 43      60.00000000       0.00000000      10.00000000       1.00000000
  1 1 44      60.00000000       0.00000000      10.00000000       1.00000000
  1 1 45      60.00000000       0.00000000      10.00000000       1.00000000
  1 1 46      60.00000000       0.00000000      10.00000000       1.00000000
  1 1 47      60.00000000       0.00000000      10.00000000       1.00000000
  1 1 48      60.00000000       0.00000000      10.00000000       1.00000000
  1 1 49      60.00000000       0.00000000      10.00000000       1.00000000
  1 1 50      60.00000000       0.00000000      10.00000000       1.00000000
  1 1 51      60.00000000       0.00000000      10.00000000       1.00000000
  1 1 52      60.00000000       0.00000000      10.00000000       1.00000000
  1 1 53      60.00000000       0.00000000      10.00000000       1.00000000
  1 1 54      60.00000000       0.00000000      10.00000000       1.00000000
  1 1 55      60.00000000       0.00000000      10.00000000       1.00000000
  1 1 56      60.00000000       0.00000000      10.00000000       1.00000000
  1 1 57      60.00000000       0.00000000      10.00000000       1.00000000
  1 1 58      60.00000000       0.00000000      10.00000000       1.00000000
  1 1 59      60.00000000       0.00000000      10.00000000       1.00000000
  1 1 60      60.00000000       0.00000000      10.00000000       1.00000000
  1 1 61      60.00000000       0.00000000      10.00000000       1.00000000
  1 1 62      60.00000000       0.00000000      10.00000000       1.00000000
  1 1 63      60.00000000       0.00000000      10.00000000       1.00000000
  1 1 64      60.00000000       0.00000000      10.00000000       1.00000000
  1 1 65      60.00000000       0.00000000      10.00000000       1.00000000
  1 1 66      60.00000000       0.00000000      10.00000000       1.00000000
  1 1 67      60.00000000       0.00000000      10.00000000       1.00000000
  1 1 68      60.00000000       0.00000000      10.00000000       1.00000000
  1 1 69      60.00000000       0.00000000      10.00000000       1.00000000
  1 1 70      60.00000000       0.00000000      10.00000000       1.00000000
  1 1 71      60.00000000       0.00000000      10.00000000       1.00000000
  1 1 72      60.00000000       0.00000000      10.00000000       1.00000000
  1 1 73      60.00000000       0.00000000      10.00000000       1.00000000
  1 1 74      60.00000000       0.00000000      10.00000000       1.00000000
  1 1 75      60.00000000       0.00000000      10.00000000       1.00000000
  1 1 76      60.00000000       0.00000000      10.00000000       1.00000000
  1 1 77      60.00000000       0.00000000      10.00000000       1.00000000
  1 1 78      60.00000000       0.00000000      10.00000000       1.00000000
  1 1 79      60.00000000       0.00000000      10.00000000       1.00000000
  1 1 80      60.00000000       0.00000000      10.00000000       1.00000000
  1 1 81      60.00000000       0.00000000      10.00000000       1.00000000
  1 1 82      60.00000000       0.00000000      10.00000000       1.00000000
  1 1 83      60.00000000       0.00000000      10.00000000       1.00000000
  1 1 84      60.00000000       0.00000000      10.00000000       1.00000000
  1 1 85      60.00000000       0.00000000      10.00000000       1.00000000
  1 1 86      60.00000000       0.00000000      10.00000000       1.00000000
  1 1 87      60.00000000       0.00000000      10.00000000       1.00000000
  1 1 88      60.00000000       0.00000000      10.00000000       1.00000000
  1 1 89      60.00000000       0.00000000      10.00000000       1.00000000
  1 1 90      60.00000000       0.00000000      10.00000000       1.00000000
  1 1 91      60.00000000       0.00000000      10.00000000       1.00000000
  1 1 92      60.00000000       0.00000000      10.00000000       1.00000000
  1 1 93      60.00000000       0.00000000      10.00000000       1.00000000
  1 1 94      60.00000000       0.00000000      10.00000000       1.00000000
  1 1 95      60.00000000       0.00000000      10.00000000       1.00000000
  1 1 96      60.00000000       0.00000000      10.00000000       1.00000000
  1 1 97      60.00000000       0.00000000      10.00000000       1.00000000
  1 1 98      60.00000000       0.00000000      10.00000000       1.00000000
  1 1 99      60.00000000       0.00000000      10.00000000       1.00000000
  1 1 100      60.00000000       0.00000000      10.00000000       1.00000000
  1 1 101      60.00000000       0.00000000      10.00000000       1.00000000
END period  1

BEGIN period  2
  
  1 1 2      60.00000000       0.00150000      10.00000000       1.00000000
  1 1 3      60.00000000       0.00150000      10.00000000       1.00000000
  1 1 4      60.00000000       0.00150000      10.00000000       1.00000000
  1 1 5      60.00000000       0.00150000      10.00000000       1.00000000
  1 1 6      60.00000000       0.00150000      10.00000000       1.00000000
  1 1 7      60.00000000       0.00150000      10.00000000       1.00000000
  1 1 8      60.00000000       0.00150000      10.00000000       1.00000000
  1 1 9      60.00000000       0.00150000      10.00000000       1.00000000
  1 1 10      60.00000000       0.00150000      10.00000000       1.00000000
  1 1 11      60.00000000       0.00150000      10.00000000       1.00000000
  1 1 12      60.00000000       0.00150000      10.00000000       1.00000000
  1 1 13      60.00000000       0.00150000      10.00000000       1.00000000
  1 1 14      60.00000000       0.00150000      10.00000000       1.00000000
  1 1 15      60.00000000       0.00150000      10.00000000       1.00000000
  1 1 16      60.00000000       0.00150000      10.00000000       1.00000000
  1 1 17      60.00000000       0.00150000      10.00000000       1.00000000
  1 1 18      60.00000000       0.00150000      10.00000000       1.00000000
  1 1 19      60.00000000       0.00150000      10.00000000       1.00000000
  1 1 20      60.00000000       0.00150000      10.00000000       1.00000000
  1 1 21      60.00000000       0.00150000      10.00000000       1.00000000
  1 1 22      60.00000000       0.00150000      10.00000000       1.00000000
  1 1 23      60.00000000       0.00150000      10.00000000       1.00000000
  1 1 24      60.00000000       0.00150000      10.00000000       1.00000000
  1 1 25      60.00000000       0.00150000      10.00000000       1.00000000
  1 1 26      60.00000000       0.00150000      10.00000000       1.00000000
  1 1 27      60.00000000       0.00150000      10.00000000       1.00000000
  1 1 28      60.00000000       0.00150000      10.00000000       1.00000000
  1 1 29      60.00000000       0.00150000      10.00000000       1.00000000
  1 1 30      60.00000000       0.00150000      10.00000000       1.00000000
  1 1 31      60.00000000       0.00150000      10.00000000       1.00000000
  1 1 32      60.00000000       0.00150000      10.00000000       1.00000000
  1 1 33      60.00000000       0.00150000      10.00000000       1.00000000
  1 1 34      60.00000000       0.00150000      10.00000000       1.00000000
  1 1 35      60.00000000       0.00150000      10.00000000       1.00000000
  1 1 36      60.00000000       0.00150000      10.00000000       1.00000000
  1 1 37      60.00000000       0.00150000      10.00000000       1.00000000
  1 1 38      60.00000000       0.00150000      10.00000000       1.00000000
  1 1 39      60.00000000       0.00150000      10.00000000       1.00000000
  1 1 40      60.00000000       0.00150000      10.00000000       1.00000000
  1 1 41      60.00000000       0.00150000      10.00000000       1.00000000
  1 1 42      60.00000000       0.00150000      10.00000000       1.00000000
  1 1 43      60.00000000       0.00150000      10.00000000       1.00000000
  1 1 44      60.00000000       0.00150000      10.00000000       1.00000000
  1 1 45      60.00000000       0.00150000      10.00000000       1.00000000
  1 1 46      60.00000000       0.00150000      10.00000000       1.00000000
  1 1 47      60.00000000       0.00150000      10.00000000       1.00000000
  1 1 48      60.00000000       0.00150000      10.00000000       1.00000000
  1 1 49      60.00000000       0.00150000      10.00000000       1.00000000
  1 1 50      60.00000000       0.00150000      10.00000000       1.00000000
  1 1 51      60.00000000       0.00150000      10.00000000       1.00000000
  1 1 52      60.00000000       0.00150000      10.00000000       1.00000000
  1 1 53      60.00000000       0.00150000      10.00000000       1.00000000
  1 1 54      60.00000000       0.00150000      10.00000000       1.00000000
  1 1 55      60.00000000       0.00150000      10.00000000       1.00000000
  1 1 56      60.00000000       0.00150000      10.00000000       1.00000000
  1 1 57      60.00000000       0.00150000      10.00000000       1.00000000
  1 1 58      60.00000000       0.00150000      10.00000000       1.00000000
  1 1 59      60.00000000       0.00150000      10.00000000       1.00000000
  1 1 60      60.00000000       0.00150000      10.00000000       1.00000000
  1 1 61      60.00000000       0.00150000      10.00000000       1.00000000
  1 1 62      60.00000000       0.00150000      10.00000000       1.00000000
  1 1 63      60.00000000       0.00150000      10.00000000       1.00000000
  1 1 64      60.00000000       0.00150000      10.00000000       1.00000000
  1 1 65      60.00000000       0.00150000      10.00000000       1.00000000
  1 1 66      60.00000000       0.00150000      10.00000000       1.00000000
  1 1 67      60.00000000       0.00150000      10.00000000       1.00000000
  1 1 68      60.00000000       0.00150000      10.00000000       1.00000000
  1 1 69      60.00000000       0.00150000      10.00000000       1.00000000
  1 1 70      60.00000000       0.00150000      10.00000000       1.00000000
  1 1 71      60.00000000       0.00150000      10.00000000       1.00000000
  1 1 72      60.00000000       0.00150000      10.00000000       1.00000000
  1 1 73      60.00000000       0.00150000      10.00000000       1.00000000
  1 1 74      60.00000000       0.00150000      10.00000000       1.00000000
  1 1 75      60.00000000       0.00150000      10.00000000       1.00000000
  1 1 76      60.00000000       0.00150000      10.00000000       1.00000000
  1 1 77      60.00000000       0.00150000      10.00000000       1.00000000
  1 1 78      60.00000000       0.00150000      10.00000000       1.00000000
  1 1 79      60.00000000       0.00150000      10.00000000       1.00000000
  1 1 80      60.00000000       0.00150000      10.00000000       1.00000000
  1 1 81      60.00000000       0.00150000      10.00000000       1.00000000
  1 1 82      60.00000000       0.00150000      10.00000000       1.00000000
  1 1 83      60.00000000       0.00150000      10.00000000       1.00000000
  1 1 84      60.00000000       0.00150000      10.00000000       1.00000000
  1 1 85      60.00000000       0.00150000      10.00000000       1.00000000
  1 1 86      60.00000000       0.00150000      10.00000000       1.00000000
  1 1 87      60.00000000       0.00150000      10.00000000       1.00000000
  1 1 88      60.00000000       0.00150000      10.00000000       1.00000000
  1 1 89      60.00000000       0.00150000      10.00000000       1.00000000
  1 1 90      60.00000000       0.00150000      10.00000000       1.00000000
  1 1 91      60.00000000       0.00150000      10.00000000       1.00000000
  1 1 92      60.00000000       0.00150000      10.00000000       1.00000000
  1 1 93      60.00000000       0.00150000      10.00000000       1.00000000
  1 1 94      60.00000000       0.00150000      10.00000000       1.00000000
  1 1 95      60.00000000       0.00150000      10.00000000       1.00000000
  1 1 96      60.00000000       0.00150000      10.00000000       1.00000000
  1 1 97      60.00000000       0.00150000      10.00000000       1.00000000
  1 1 98      60.00000000       0.00150000      10.00000000       1.00000000
  1 1 99      60.00000000       0.00150000      10.00000000       1.00000000
  1 1 100      60.00000000       0.00150000      10.00000000       1.00000000
  1 1 101      60.00000000       0.00150000      10.00000000       1.00000000
END period  2

BEGIN period  3
  
  1 1 2      60.00000000       0.00150000      10.00000000       1.00000000
  1 1 3      60.00000000       0.00150000      10.00000000       1.00000000
  1 1 4      60.00000000       0.00150000      10.00000000       1.00000000
  1 1 5      60.00000000       0.00150000      10.00000000       1.00000000
  1 1 6      60.00000000       0.00150000      10.00000000       1.00000000
  1 1 7      60.00000000       0.00150000      10.00000000       1.00000000
  1 1 8      60.00000000       0.00150000      10.00000000       1.00000000
  1 1 9      60.00000000       0.00150000      10.00000000       1.00000000
  1 1 10      60.00000000       0.00150000      10.00000000       1.00000000
  1 1 11      60.00000000       0.00150000      10.00000000       1.00000000
  1 1 12      60.00000000       0.00150000      10.00000000       1.00000000
  1 1 13      60.00000000       0.00150000      10.00000000       1.00000000
  1 1 14      60.00000000       0.00150000      10.00000000       1.00000000
  1 1 15      60.00000000       0.00150000      10.00000000       1.00000000
  1 1 16      60.00000000       0.00150000      10.00000000       1.00000000
  1 1 17      60.00000000       0.00150000      10.00000000       1.00000000
  1 1 18      60.00000000       0.00150000      10.00000000       1.00000000
  1 1 19      60.00000000       0.00150000      10.00000000       1.00000000
  1 1 20      60.00000000       0.00150000      10.00000000       1.00000000
  1 1 21      60.00000000       0.00150000      10.00000000       1.00000000
  1 1 22      60.00000000       0.00150000      10.00000000       1.00000000
  1 1 23      60.00000000       0.00150000      10.00000000       1.00000000
  1 1 24      60.00000000       0.00150000      10.00000000       1.00000000
  1 1 25      60.00000000       0.00150000      10.00000000       1.00000000
  1 1 26      60.00000000       0.00150000      10.00000000       1.00000000
  1 1 27      60.00000000       0.00150000      10.00000000       1.00000000
  1 1 28      60.00000000       0.00150000      10.00000000       1.00000000
  1 1 29      60.00000000       0.00150000      10.00000000       1.00000000
  1 1 30      60.00000000       0.00150000      10.00000000       1.00000000
  1 1 31      60.00000000       0.00150000      10.00000000       1.00000000
  1 1 32      60.00000000       0.00150000      10.00000000       1.00000000
  1 1 33      60.00000000       0.00150000      10.00000000       1.00000000
  1 1 34      60.00000000       0.00150000      10.00000000       1.00000000
  1 1 35      60.00000000       0.00150000      10.00000000       1.00000000
  1 1 36      60.00000000       0.00150000      10.00000000       1.00000000
  1 1 37      60.00000000       0.00150000      10.00000000       1.00000000
  1 1 38      60.00000000       0.00150000      10.00000000       1.00000000
  1 1 39      60.00000000       0.00150000      10.00000000       1.00000000
  1 1 40      60.00000000       0.00150000      10.00000000       1.00000000
  1 1 41      60.00000000       0.00150000      10.00000000       1.00000000
  1 1 42      60.00000000       0.00150000      10.00000000       1.00000000
  1 1 43      60.00000000       0.00150000      10.00000000       1.00000000
  1 1 44      60.00000000       0.00150000      10.00000000       1.00000000
  1 1 45      60.00000000       0.00150000      10.00000000       1.00000000
  1 1 46      60.00000000       0.00150000      10.00000000       1.00000000
  1 1 47      60.00000000       0.00150000      10.00000000       1.00000000
  1 1 48      60.00000000       0.00150000      10.00000000       1.00000000
  1 1 49      60.00000000       0.00150000      10.00000000       1.00000000
  1 1 50      60.00000000       0.00150000      10.00000000       1.00000000
  1 1 51      60.00000000       0.00150000      10.00000000       1.00000000
  1 1 52      60.00000000       0.00150000      10.00000000       1.00000000
  1 1 53      60.00000000       0.00150000      10.00000000       1.00000000
  1 1 54      60.00000000       0.00150000      10.00000000       1.00000000
  1 1 55      60.00000000       0.00150000      10.00000000       1.00000000
  1 1 56      60.00000000       0.00150000      10.00000000       1.00000000
  1 1 57      60.00000000       0.00150000      10.00000000       1.00000000
  1 1 58      60.00000000       0.00150000      10.00000000       1.00000000
  1 1 59      60.00000000       0.00150000      10.00000000       1.00000000
  1 1 60      60.00000000       0.00150000      10.00000000       1.00000000
  1 1 61      60.00000000       0.00150000      10.00000000       1.00000000
  1 1 62      60.00000000       0.00150000      10.00000000       1.00000000
  1 1 63      60.00000000       0.00150000      10.00000000       1.00000000
  1 1 64      60.00000000       0.00150000      10.00000000       1.00000000
  1 1 65      60.00000000       0.00150000      10.00000000       1.00000000
  1 1 66      60.00000000       0.00150000      10.00000000       1.00000000
  1 1 67      60.00000000       0.00150000      10.00000000       1.00000000
  1 1 68      60.00000000       0.00150000      10.00000000       1.00000000
  1 1 69      60.00000000       0.00150000      10.00000000       1.00000000
  1 1 70      60.00000000       0.00150000      10.00000000       1.00000000
  1 1 71      60.00000000       0.00150000      10.00000000       1.00000000
  1 1 72      60.00000000       0.00150000      10.00000000       1.00000000
  1 1 73      60.00000000       0.00150000      10.00000000       1.00000000
  1 1 74      60.00000000       0.00150000      10.00000000       1.00000000
  1 1 75      60.00000000       0.00150000      10.00000000       1.00000000
  1 1 76      60.00000000       0.00150000      10.00000000       1.00000000
  1 1 77      60.00000000       0.00150000      10.00000000       1.00000000
  1 1 78      60.00000000       0.00150000      10.00000000       1.00000000
  1 1 79      60.00000000       0.00150000      10.00000000       1.00000000
  1 1 80      60.00000000       0.00150000      10.00000000       1.00000000
  1 1 81      60.00000000       0.00150000      10.00000000       1.00000000
  1 1 82      60.00000000       0.00150000      10.00000000       1.00000000
  1 1 83      60.00000000       0.00150000      10.00000000       1.00000000
  1 1 84      60.00000000       0.00150000      10.00000000       1.00000000
  1 1 85      60.00000000       0.00150000      10.00000000       1.00000000
  1 1 86      60.00000000       0.00150000      10.00000000       1.00000000
  1 1 87      60.00000000       0.00150000      10.00000000       1.00000000
  1 1 88      60.00000000       0.00150000      10.00000000       1.00000000
  1 1 89      60.00000000       0.00150000      10.00000000       1.00000000
  1 1 90      60.00000000       0.00150000      10.00000000       1.00000000
  1 1 91      60.00000000       0.00150000      10.00000000       1.00000000
  1 1 92      60.00000000       0.00150000      10.00000000       1.00000000
  1 1 93      60.00000000       0.00150000      10.00000000       1.00000000
  1 1 94      60.00000000       0.00150000      10.00000000       1.00000000
  1 1 95      60.00000000       0.00150000      10.00000000       1.00000000
  1 1 96      60.00000000       0.00150000      10.00000000       1.00000000
  1 1 97      60.00000000       0.00150000      10.00000000       1.00000000
  1 1 98      60.00000000       0.00150000      10.00000000       1.00000000
  1 1 99      60.00000000       0.00150000      10.00000000       1.00000000
  1 1 100      60.00000000       0.00150000      10.00000000       1.00000000
  1 1 101      60.00000000       0.00150000      10.00000000       1.00000000
END period  3

