BEGIN options
  PRINT_INPUT
  TS6  FILEIN  recharge_rates.ts
END options

BEGIN dimensions
  MAXBOUND  99
END dimensions

BEGIN period  1
  1 1 2  rch_1
  1 1 3  rch_1
  1 1 4  rch_1
  1 1 5  rch_1
  1 1 6  rch_1
  1 1 7  rch_1
  1 1 8  rch_1
  1 1 9  rch_1
  1 1 10  rch_1
  1 1 11  rch_1
  1 1 12  rch_1
  1 1 13  rch_1
  1 1 14  rch_1
  1 1 15  rch_1
  1 1 16  rch_1
  1 1 17  rch_1
  1 1 18  rch_1
  1 1 19  rch_1
  1 1 20  rch_1
  1 1 21  rch_1
  1 1 22  rch_1
  1 1 23  rch_1
  1 1 24  rch_1
  1 1 25  rch_1
  1 1 26  rch_1
  1 1 27  rch_1
  1 1 28  rch_1
  1 1 29  rch_1
  1 1 30  rch_1
  1 1 31  rch_1
  1 1 32  rch_1
  1 1 33  rch_1
  1 1 34  rch_1
  1 1 35  rch_1
  1 1 36  rch_1
  1 1 37  rch_1
  1 1 38  rch_1
  1 1 39  rch_1
  1 1 40  rch_1
  1 1 41  rch_1
  1 1 42  rch_1
  1 1 43  rch_1
  1 1 44  rch_1
  1 1 45  rch_1
  1 1 46  rch_1
  1 1 47  rch_1
  1 1 48  rch_1
  1 1 49  rch_1
  1 1 50  rch_1
  1 1 51  rch_1
  1 1 52  rch_1
  1 1 53  rch_1
  1 1 54  rch_1
  1 1 55  rch_1
  1 1 56  rch_1
  1 1 57  rch_1
  1 1 58  rch_1
  1 1 59  rch_1
  1 1 60  rch_1
  1 1 61  rch_1
  1 1 62  rch_1
  1 1 63  rch_1
  1 1 64  rch_1
  1 1 65  rch_1
  1 1 66  rch_1
  1 1 67  rch_1
  1 1 68  rch_1
  1 1 69  rch_1
  1 1 70  rch_1
  1 1 71  rch_1
  1 1 72  rch_1
  1 1 73  rch_1
  1 1 74  rch_1
  1 1 75  rch_1
  1 1 76  rch_1
  1 1 77  rch_1
  1 1 78  rch_1
  1 1 79  rch_1
  1 1 80  rch_1
  1 1 81  rch_1
  1 1 82  rch_1
  1 1 83  rch_1
  1 1 84  rch_1
  1 1 85  rch_1
  1 1 86  rch_1
  1 1 87  rch_1
  1 1 88  rch_1
  1 1 89  rch_1
  1 1 90  rch_1
  1 1 91  rch_1
  1 1 92  rch_1
  1 1 93  rch_1
  1 1 94  rch_1
  1 1 95  rch_1
  1 1 96  rch_1
  1 1 97  rch_1
  1 1 98  rch_1
  1 1 99  rch_1
  1 1 100  rch_1
END period  1

BEGIN period  2
  1 1 2  rch_1
  1 1 3  rch_1
  1 1 4  rch_1
  1 1 5  rch_1
  1 1 6  rch_1
  1 1 7  rch_1
  1 1 8  rch_1
  1 1 9  rch_1
  1 1 10  rch_1
  1 1 11  rch_1
  1 1 12  rch_1
  1 1 13  rch_1
  1 1 14  rch_1
  1 1 15  rch_1
  1 1 16  rch_1
  1 1 17  rch_1
  1 1 18  rch_1
  1 1 19  rch_1
  1 1 20  rch_1
  1 1 21  rch_1
  1 1 22  rch_1
  1 1 23  rch_1
  1 1 24  rch_1
  1 1 25  rch_1
  1 1 26  rch_1
  1 1 27  rch_1
  1 1 28  rch_1
  1 1 29  rch_1
  1 1 30  rch_1
  1 1 31  rch_1
  1 1 32  rch_1
  1 1 33  rch_1
  1 1 34  rch_1
  1 1 35  rch_1
  1 1 36  rch_1
  1 1 37  rch_1
  1 1 38  rch_1
  1 1 39  rch_1
  1 1 40  rch_1
  1 1 41  rch_1
  1 1 42  rch_1
  1 1 43  rch_1
  1 1 44  rch_1
  1 1 45  rch_1
  1 1 46  rch_1
  1 1 47  rch_1
  1 1 48  rch_1
  1 1 49  rch_1
  1 1 50  rch_1
  1 1 51  rch_1
  1 1 52  rch_1
  1 1 53  rch_1
  1 1 54  rch_1
  1 1 55  rch_1
  1 1 56  rch_1
  1 1 57  rch_1
  1 1 58  rch_1
  1 1 59  rch_1
  1 1 60  rch_1
  1 1 61  rch_1
  1 1 62  rch_1
  1 1 63  rch_1
  1 1 64  rch_1
  1 1 65  rch_1
  1 1 66  rch_1
  1 1 67  rch_1
  1 1 68  rch_1
  1 1 69  rch_1
  1 1 70  rch_1
  1 1 71  rch_1
  1 1 72  rch_1
  1 1 73  rch_1
  1 1 74  rch_1
  1 1 75  rch_1
  1 1 76  rch_1
  1 1 77  rch_1
  1 1 78  rch_1
  1 1 79  rch_1
  1 1 80  rch_1
  1 1 81  rch_1
  1 1 82  rch_1
  1 1 83  rch_1
  1 1 84  rch_1
  1 1 85  rch_1
  1 1 86  rch_1
  1 1 87  rch_1
  1 1 88  rch_1
  1 1 89  rch_1
  1 1 90  rch_1
  1 1 91  rch_1
  1 1 92  rch_1
  1 1 93  rch_1
  1 1 94  rch_1
  1 1 95  rch_1
  1 1 96  rch_1
  1 1 97  rch_1
  1 1 98  rch_1
  1 1 99  rch_1
  1 1 100  rch_1
END period  2

BEGIN period  3
  1 1 2  rch_1
  1 1 3  rch_1
  1 1 4  rch_1
  1 1 5  rch_1
  1 1 6  rch_1
  1 1 7  rch_1
  1 1 8  rch_1
  1 1 9  rch_1
  1 1 10  rch_1
  1 1 11  rch_1
  1 1 12  rch_1
  1 1 13  rch_1
  1 1 14  rch_1
  1 1 15  rch_1
  1 1 16  rch_1
  1 1 17  rch_1
  1 1 18  rch_1
  1 1 19  rch_1
  1 1 20  rch_1
  1 1 21  rch_1
  1 1 22  rch_1
  1 1 23  rch_1
  1 1 24  rch_1
  1 1 25  rch_1
  1 1 26  rch_1
  1 1 27  rch_1
  1 1 28  rch_1
  1 1 29  rch_1
  1 1 30  rch_1
  1 1 31  rch_1
  1 1 32  rch_1
  1 1 33  rch_1
  1 1 34  rch_1
  1 1 35  rch_1
  1 1 36  rch_1
  1 1 37  rch_1
  1 1 38  rch_1
  1 1 39  rch_1
  1 1 40  rch_1
  1 1 41  rch_1
  1 1 42  rch_1
  1 1 43  rch_1
  1 1 44  rch_1
  1 1 45  rch_1
  1 1 46  rch_1
  1 1 47  rch_1
  1 1 48  rch_1
  1 1 49  rch_1
  1 1 50  rch_1
  1 1 51  rch_1
  1 1 52  rch_1
  1 1 53  rch_1
  1 1 54  rch_1
  1 1 55  rch_1
  1 1 56  rch_1
  1 1 57  rch_1
  1 1 58  rch_1
  1 1 59  rch_1
  1 1 60  rch_1
  1 1 61  rch_1
  1 1 62  rch_1
  1 1 63  rch_1
  1 1 64  rch_1
  1 1 65  rch_1
  1 1 66  rch_1
  1 1 67  rch_1
  1 1 68  rch_1
  1 1 69  rch_1
  1 1 70  rch_1
  1 1 71  rch_1
  1 1 72  rch_1
  1 1 73  rch_1
  1 1 74  rch_1
  1 1 75  rch_1
  1 1 76  rch_1
  1 1 77  rch_1
  1 1 78  rch_1
  1 1 79  rch_1
  1 1 80  rch_1
  1 1 81  rch_1
  1 1 82  rch_1
  1 1 83  rch_1
  1 1 84  rch_1
  1 1 85  rch_1
  1 1 86  rch_1
  1 1 87  rch_1
  1 1 88  rch_1
  1 1 89  rch_1
  1 1 90  rch_1
  1 1 91  rch_1
  1 1 92  rch_1
  1 1 93  rch_1
  1 1 94  rch_1
  1 1 95  rch_1
  1 1 96  rch_1
  1 1 97  rch_1
  1 1 98  rch_1
  1 1 99  rch_1
  1 1 100  rch_1
END period  3

