BEGIN options
  PRINT_OPTION  summary
END options

BEGIN nonlinear
  OUTER_HCLOSE         1.00000000E-10
  OUTER_MAXIMUM        100
  UNDER_RELAXATION     none
END nonlinear

BEGIN linear
  INNER_MAXIMUM        300
  INNER_HCLOSE         1.00000000E-10
  inner_rclose         1.00000000E-10
  LINEAR_ACCELERATION  cg
  RELAXATION_FACTOR    1.00000000
  SCALING_METHOD       none
  REORDERING_METHOD    none
END linear

