BEGIN options
  SAVE_FLOWS
END options

BEGIN griddata
  iconvert
    CONSTANT  1
  ss  LAYERED
    CONSTANT  1.00000000E-05
    CONSTANT  1.00000000E-05
    CONSTANT  1.00000000E-05
    CONSTANT  1.00000000E-05
    CONSTANT  1.00000000E-05
    CONSTANT  1.00000000E-05
  sy  LAYERED
    CONSTANT       0.15000000
    CONSTANT       0.15000000
    CONSTANT       0.15000000
    CONSTANT      20.00000000
    CONSTANT      10.00000000
    CONSTANT       0.00000000
END griddata

BEGIN period  1
  STEADY-STATE
END period  1

BEGIN period  2
  TRANSIENT
END period  2

