BEGIN options
END options

BEGIN dimensions
  MAXBOUND  12
END dimensions

BEGIN period  1
  1 1 1      60.00000000
  1 1 101      51.00000000
  2 1 1      60.00000000
  2 1 101      51.00000000
  3 1 1      60.00000000
  3 1 101      51.00000000
  4 1 1      60.00000000
  4 1 101      51.00000000
  5 1 1      60.00000000
  5 1 101      51.00000000
  6 1 1      60.00000000
  6 1 101      51.00000000
END period  1

