# MODFLOW-NWT - Link-MT3D-USGS Package Input File
OUTPUT_FILE_NAME 1ed5ea.ftl
OUTPUT_FILE_UNIT 12
OUTPUT_FILE_HEADER extended
OUTPUT_FILE_FORMAT Unformatted
