# IMS: Iterative Model Solution file created on 2/19/2019 by ModelMuse version 3.10.0.42.
BEGIN OPTIONS
  PRINT_OPTION ALL
  COMPLEXITY SIMPLE
CSV_OUTPUT FILEOUT ImportedP3.Solution.CSV
END OPTIONS

BEGIN NONLINEAR
  OUTER_HCLOSE   1.000000000000E-007 
  OUTER_MAXIMUM    100
  UNDER_RELAXATION NONE
  BACKTRACKING_NUMBER    10
END NONLINEAR

BEGIN LINEAR
  INNER_MAXIMUM   100
  INNER_HCLOSE  1.000000000000E-007
  INNER_RCLOSE  1.000000000000E-003 
  LINEAR_ACCELERATION BICGSTAB
END LINEAR

