# Name File for MODFLOW created on 2/19/2019 by ModelMuse Version 3.10.0.42
BEGIN OPTIONS
  LIST         ImportedP3.lst
  PRINT_INPUT
  SAVE_FLOWS
END OPTIONS

BEGIN PACKAGES
  DIS6         ImportedP3.dis
  IC6          ImportedP3.ic
  NPF6         ImportedP3.npf
  OC6          ImportedP3.oc
  CHD6         ImportedP3.chd
  WEL6         ImportedP3.wel
END PACKAGES
