BEGIN TIMING
  TDIS6 ImportedP3.tdis
END TIMING

BEGIN MODELS
  GWF6  ImportedP3.nam  MODFLOW
END MODELS

BEGIN EXCHANGES
END EXCHANGES

BEGIN SOLUTIONGROUP     1
  MXITER     1
  IMS6 ImportedP3.ims   MODFLOW
END SOLUTIONGROUP

