# Name File for MODFLOW created on 2/19/2019 by ModelMuse Version 3.10.0.42
LIST             11 ImportedP9.lst REPLACE
DATA(BINARY)      9 ImportedP9.cbc REPLACE
DIS              12 ImportedP9.dis OLD
BAS6             13 ImportedP9.bas OLD
OC               39 ImportedP9.oc OLD
DATA             37 ImportedP9.fhd REPLACE
DATA             38 ImportedP9.fdn REPLACE
SIP              35 ImportedP9.sip OLD
BCF6             64 ImportedP9.bcf OLD
LMT6            135 ImportedP9.lmt OLD
DATA(BINARY)    136 ImportedP9.ftl REPLACE
CHD              17 ImportedP9.chd OLD
WEL              20 ImportedP9.wel OLD
