# CHD: Time-Variant Specified-Head package file created on 2/19/2019 by ModelMuse version 3.10.0.42.
BEGIN OPTIONS
    AUXILIARY IFACE
    BOUNDNAMES
    PRINT_INPUT
    SAVE_FLOWS
END OPTIONS

BEGIN DIMENSIONS
  MAXBOUND   120
END DIMENSIONS

BEGIN PERIOD      1
     1     1     1  1.355536000000E+006      0 'Imported_Specified_Head__Layer1_1'  # Data Set 6: Layer Row Column Shead IFACE boundname
     1     1     2  1.350956000000E+006      0 'Imported_Specified_Head__Layer1_1'  # Data Set 6: Layer Row Column Shead IFACE boundname
     1     1     3  1.346399000000E+006      0 'Imported_Specified_Head__Layer1_1'  # Data Set 6: Layer Row Column Shead IFACE boundname
     1     1     4  1.341892000000E+006      0 'Imported_Specified_Head__Layer1_1'  # Data Set 6: Layer Row Column Shead IFACE boundname
     1     1     5  1.337467000000E+006      0 'Imported_Specified_Head__Layer1_1'  # Data Set 6: Layer Row Column Shead IFACE boundname
     1     1     6  1.333162000000E+006      0 'Imported_Specified_Head__Layer1_1'  # Data Set 6: Layer Row Column Shead IFACE boundname
     1     1     7  1.329020000000E+006      0 'Imported_Specified_Head__Layer1_1'  # Data Set 6: Layer Row Column Shead IFACE boundname
     1     1     8  1.325090000000E+006      0 'Imported_Specified_Head__Layer1_1'  # Data Set 6: Layer Row Column Shead IFACE boundname
     1     1     9  1.321425000000E+006      0 'Imported_Specified_Head__Layer1_1'  # Data Set 6: Layer Row Column Shead IFACE boundname
     1     1    10  1.318083000000E+006      0 'Imported_Specified_Head__Layer1_1'  # Data Set 6: Layer Row Column Shead IFACE boundname
     1     1    11  1.315123000000E+006      0 'Imported_Specified_Head__Layer1_1'  # Data Set 6: Layer Row Column Shead IFACE boundname
     1     1    12  1.312602000000E+006      0 'Imported_Specified_Head__Layer1_1'  # Data Set 6: Layer Row Column Shead IFACE boundname
     1     1    13  1.310575000000E+006      0 'Imported_Specified_Head__Layer1_1'  # Data Set 6: Layer Row Column Shead IFACE boundname
     1     1    14  1.309090000000E+006      0 'Imported_Specified_Head__Layer1_1'  # Data Set 6: Layer Row Column Shead IFACE boundname
     1     1    15  1.308184000000E+006      0 'Imported_Specified_Head__Layer1_1'  # Data Set 6: Layer Row Column Shead IFACE boundname
     1     1    16  1.307879000000E+006      0 'Imported_Specified_Head__Layer1_1'  # Data Set 6: Layer Row Column Shead IFACE boundname
     1     1    17  1.308184000000E+006      0 'Imported_Specified_Head__Layer1_1'  # Data Set 6: Layer Row Column Shead IFACE boundname
     1     1    18  1.309090000000E+006      0 'Imported_Specified_Head__Layer1_1'  # Data Set 6: Layer Row Column Shead IFACE boundname
     1     1    19  1.310575000000E+006      0 'Imported_Specified_Head__Layer1_1'  # Data Set 6: Layer Row Column Shead IFACE boundname
     1     1    20  1.312602000000E+006      0 'Imported_Specified_Head__Layer1_1'  # Data Set 6: Layer Row Column Shead IFACE boundname
     1     1    21  1.315123000000E+006      0 'Imported_Specified_Head__Layer1_1'  # Data Set 6: Layer Row Column Shead IFACE boundname
     1     1    22  1.318083000000E+006      0 'Imported_Specified_Head__Layer1_1'  # Data Set 6: Layer Row Column Shead IFACE boundname
     1     1    23  1.321425000000E+006      0 'Imported_Specified_Head__Layer1_1'  # Data Set 6: Layer Row Column Shead IFACE boundname
     1     1    24  1.325090000000E+006      0 'Imported_Specified_Head__Layer1_1'  # Data Set 6: Layer Row Column Shead IFACE boundname
     1     1    25  1.329020000000E+006      0 'Imported_Specified_Head__Layer1_1'  # Data Set 6: Layer Row Column Shead IFACE boundname
     1     1    26  1.333162000000E+006      0 'Imported_Specified_Head__Layer1_1'  # Data Set 6: Layer Row Column Shead IFACE boundname
     1     1    27  1.337467000000E+006      0 'Imported_Specified_Head__Layer1_1'  # Data Set 6: Layer Row Column Shead IFACE boundname
     1     1    28  1.341892000000E+006      0 'Imported_Specified_Head__Layer1_1'  # Data Set 6: Layer Row Column Shead IFACE boundname
     1     1    29  1.346399000000E+006      0 'Imported_Specified_Head__Layer1_1'  # Data Set 6: Layer Row Column Shead IFACE boundname
     1     1    30  1.350956000000E+006      0 'Imported_Specified_Head__Layer1_1'  # Data Set 6: Layer Row Column Shead IFACE boundname
     1     1    31  1.355536000000E+006      0 'Imported_Specified_Head__Layer1_1'  # Data Set 6: Layer Row Column Shead IFACE boundname
     1     2     1  1.350956000000E+006      0 'Imported_Specified_Head__Layer1_1'  # Data Set 6: Layer Row Column Shead IFACE boundname
     1     2    31  1.350956000000E+006      0 'Imported_Specified_Head__Layer1_1'  # Data Set 6: Layer Row Column Shead IFACE boundname
     1     3     1  1.346399000000E+006      0 'Imported_Specified_Head__Layer1_1'  # Data Set 6: Layer Row Column Shead IFACE boundname
     1     3    31  1.346399000000E+006      0 'Imported_Specified_Head__Layer1_1'  # Data Set 6: Layer Row Column Shead IFACE boundname
     1     4     1  1.341892000000E+006      0 'Imported_Specified_Head__Layer1_1'  # Data Set 6: Layer Row Column Shead IFACE boundname
     1     4    31  1.341892000000E+006      0 'Imported_Specified_Head__Layer1_1'  # Data Set 6: Layer Row Column Shead IFACE boundname
     1     5     1  1.337467000000E+006      0 'Imported_Specified_Head__Layer1_1'  # Data Set 6: Layer Row Column Shead IFACE boundname
     1     5    31  1.337467000000E+006      0 'Imported_Specified_Head__Layer1_1'  # Data Set 6: Layer Row Column Shead IFACE boundname
     1     6     1  1.333162000000E+006      0 'Imported_Specified_Head__Layer1_1'  # Data Set 6: Layer Row Column Shead IFACE boundname
     1     6    31  1.333162000000E+006      0 'Imported_Specified_Head__Layer1_1'  # Data Set 6: Layer Row Column Shead IFACE boundname
     1     7     1  1.329020000000E+006      0 'Imported_Specified_Head__Layer1_1'  # Data Set 6: Layer Row Column Shead IFACE boundname
     1     7    31  1.329020000000E+006      0 'Imported_Specified_Head__Layer1_1'  # Data Set 6: Layer Row Column Shead IFACE boundname
     1     8     1  1.325090000000E+006      0 'Imported_Specified_Head__Layer1_1'  # Data Set 6: Layer Row Column Shead IFACE boundname
     1     8    31  1.325090000000E+006      0 'Imported_Specified_Head__Layer1_1'  # Data Set 6: Layer Row Column Shead IFACE boundname
     1     9     1  1.321425000000E+006      0 'Imported_Specified_Head__Layer1_1'  # Data Set 6: Layer Row Column Shead IFACE boundname
     1     9    31  1.321425000000E+006      0 'Imported_Specified_Head__Layer1_1'  # Data Set 6: Layer Row Column Shead IFACE boundname
     1    10     1  1.318083000000E+006      0 'Imported_Specified_Head__Layer1_1'  # Data Set 6: Layer Row Column Shead IFACE boundname
     1    10    31  1.318083000000E+006      0 'Imported_Specified_Head__Layer1_1'  # Data Set 6: Layer Row Column Shead IFACE boundname
     1    11     1  1.315123000000E+006      0 'Imported_Specified_Head__Layer1_1'  # Data Set 6: Layer Row Column Shead IFACE boundname
     1    11    31  1.315123000000E+006      0 'Imported_Specified_Head__Layer1_1'  # Data Set 6: Layer Row Column Shead IFACE boundname
     1    12     1  1.312602000000E+006      0 'Imported_Specified_Head__Layer1_1'  # Data Set 6: Layer Row Column Shead IFACE boundname
     1    12    31  1.312602000000E+006      0 'Imported_Specified_Head__Layer1_1'  # Data Set 6: Layer Row Column Shead IFACE boundname
     1    13     1  1.310575000000E+006      0 'Imported_Specified_Head__Layer1_1'  # Data Set 6: Layer Row Column Shead IFACE boundname
     1    13    31  1.310575000000E+006      0 'Imported_Specified_Head__Layer1_1'  # Data Set 6: Layer Row Column Shead IFACE boundname
     1    14     1  1.309090000000E+006      0 'Imported_Specified_Head__Layer1_1'  # Data Set 6: Layer Row Column Shead IFACE boundname
     1    14    31  1.309090000000E+006      0 'Imported_Specified_Head__Layer1_1'  # Data Set 6: Layer Row Column Shead IFACE boundname
     1    15     1  1.308184000000E+006      0 'Imported_Specified_Head__Layer1_1'  # Data Set 6: Layer Row Column Shead IFACE boundname
     1    15    31  1.308184000000E+006      0 'Imported_Specified_Head__Layer1_1'  # Data Set 6: Layer Row Column Shead IFACE boundname
     1    16     1  1.307879000000E+006      0 'Imported_Specified_Head__Layer1_1'  # Data Set 6: Layer Row Column Shead IFACE boundname
     1    16    31  1.307879000000E+006      0 'Imported_Specified_Head__Layer1_1'  # Data Set 6: Layer Row Column Shead IFACE boundname
     1    17     1  1.308184000000E+006      0 'Imported_Specified_Head__Layer1_1'  # Data Set 6: Layer Row Column Shead IFACE boundname
     1    17    31  1.308184000000E+006      0 'Imported_Specified_Head__Layer1_1'  # Data Set 6: Layer Row Column Shead IFACE boundname
     1    18     1  1.309090000000E+006      0 'Imported_Specified_Head__Layer1_1'  # Data Set 6: Layer Row Column Shead IFACE boundname
     1    18    31  1.309090000000E+006      0 'Imported_Specified_Head__Layer1_1'  # Data Set 6: Layer Row Column Shead IFACE boundname
     1    19     1  1.310575000000E+006      0 'Imported_Specified_Head__Layer1_1'  # Data Set 6: Layer Row Column Shead IFACE boundname
     1    19    31  1.310575000000E+006      0 'Imported_Specified_Head__Layer1_1'  # Data Set 6: Layer Row Column Shead IFACE boundname
     1    20     1  1.312602000000E+006      0 'Imported_Specified_Head__Layer1_1'  # Data Set 6: Layer Row Column Shead IFACE boundname
     1    20    31  1.312602000000E+006      0 'Imported_Specified_Head__Layer1_1'  # Data Set 6: Layer Row Column Shead IFACE boundname
     1    21     1  1.315123000000E+006      0 'Imported_Specified_Head__Layer1_1'  # Data Set 6: Layer Row Column Shead IFACE boundname
     1    21    31  1.315123000000E+006      0 'Imported_Specified_Head__Layer1_1'  # Data Set 6: Layer Row Column Shead IFACE boundname
     1    22     1  1.318083000000E+006      0 'Imported_Specified_Head__Layer1_1'  # Data Set 6: Layer Row Column Shead IFACE boundname
     1    22    31  1.318083000000E+006      0 'Imported_Specified_Head__Layer1_1'  # Data Set 6: Layer Row Column Shead IFACE boundname
     1    23     1  1.321425000000E+006      0 'Imported_Specified_Head__Layer1_1'  # Data Set 6: Layer Row Column Shead IFACE boundname
     1    23    31  1.321425000000E+006      0 'Imported_Specified_Head__Layer1_1'  # Data Set 6: Layer Row Column Shead IFACE boundname
     1    24     1  1.325090000000E+006      0 'Imported_Specified_Head__Layer1_1'  # Data Set 6: Layer Row Column Shead IFACE boundname
     1    24    31  1.325090000000E+006      0 'Imported_Specified_Head__Layer1_1'  # Data Set 6: Layer Row Column Shead IFACE boundname
     1    25     1  1.329020000000E+006      0 'Imported_Specified_Head__Layer1_1'  # Data Set 6: Layer Row Column Shead IFACE boundname
     1    25    31  1.329020000000E+006      0 'Imported_Specified_Head__Layer1_1'  # Data Set 6: Layer Row Column Shead IFACE boundname
     1    26     1  1.333162000000E+006      0 'Imported_Specified_Head__Layer1_1'  # Data Set 6: Layer Row Column Shead IFACE boundname
     1    26    31  1.333162000000E+006      0 'Imported_Specified_Head__Layer1_1'  # Data Set 6: Layer Row Column Shead IFACE boundname
     1    27     1  1.337467000000E+006      0 'Imported_Specified_Head__Layer1_1'  # Data Set 6: Layer Row Column Shead IFACE boundname
     1    27    31  1.337467000000E+006      0 'Imported_Specified_Head__Layer1_1'  # Data Set 6: Layer Row Column Shead IFACE boundname
     1    28     1  1.341892000000E+006      0 'Imported_Specified_Head__Layer1_1'  # Data Set 6: Layer Row Column Shead IFACE boundname
     1    28    31  1.341892000000E+006      0 'Imported_Specified_Head__Layer1_1'  # Data Set 6: Layer Row Column Shead IFACE boundname
     1    29     1  1.346399000000E+006      0 'Imported_Specified_Head__Layer1_1'  # Data Set 6: Layer Row Column Shead IFACE boundname
     1    29    31  1.346399000000E+006      0 'Imported_Specified_Head__Layer1_1'  # Data Set 6: Layer Row Column Shead IFACE boundname
     1    30     1  1.350956000000E+006      0 'Imported_Specified_Head__Layer1_1'  # Data Set 6: Layer Row Column Shead IFACE boundname
     1    30    31  1.350956000000E+006      0 'Imported_Specified_Head__Layer1_1'  # Data Set 6: Layer Row Column Shead IFACE boundname
     1    31     1  1.355536000000E+006      0 'Imported_Specified_Head__Layer1_1'  # Data Set 6: Layer Row Column Shead IFACE boundname
     1    31     2  1.350956000000E+006      0 'Imported_Specified_Head__Layer1_1'  # Data Set 6: Layer Row Column Shead IFACE boundname
     1    31     3  1.346399000000E+006      0 'Imported_Specified_Head__Layer1_1'  # Data Set 6: Layer Row Column Shead IFACE boundname
     1    31     4  1.341892000000E+006      0 'Imported_Specified_Head__Layer1_1'  # Data Set 6: Layer Row Column Shead IFACE boundname
     1    31     5  1.337467000000E+006      0 'Imported_Specified_Head__Layer1_1'  # Data Set 6: Layer Row Column Shead IFACE boundname
     1    31     6  1.333162000000E+006      0 'Imported_Specified_Head__Layer1_1'  # Data Set 6: Layer Row Column Shead IFACE boundname
     1    31     7  1.329020000000E+006      0 'Imported_Specified_Head__Layer1_1'  # Data Set 6: Layer Row Column Shead IFACE boundname
     1    31     8  1.325090000000E+006      0 'Imported_Specified_Head__Layer1_1'  # Data Set 6: Layer Row Column Shead IFACE boundname
     1    31     9  1.321425000000E+006      0 'Imported_Specified_Head__Layer1_1'  # Data Set 6: Layer Row Column Shead IFACE boundname
     1    31    10  1.318083000000E+006      0 'Imported_Specified_Head__Layer1_1'  # Data Set 6: Layer Row Column Shead IFACE boundname
     1    31    11  1.315123000000E+006      0 'Imported_Specified_Head__Layer1_1'  # Data Set 6: Layer Row Column Shead IFACE boundname
     1    31    12  1.312602000000E+006      0 'Imported_Specified_Head__Layer1_1'  # Data Set 6: Layer Row Column Shead IFACE boundname
     1    31    13  1.310575000000E+006      0 'Imported_Specified_Head__Layer1_1'  # Data Set 6: Layer Row Column Shead IFACE boundname
     1    31    14  1.309090000000E+006      0 'Imported_Specified_Head__Layer1_1'  # Data Set 6: Layer Row Column Shead IFACE boundname
     1    31    15  1.308184000000E+006      0 'Imported_Specified_Head__Layer1_1'  # Data Set 6: Layer Row Column Shead IFACE boundname
     1    31    16  1.307879000000E+006      0 'Imported_Specified_Head__Layer1_1'  # Data Set 6: Layer Row Column Shead IFACE boundname
     1    31    17  1.308184000000E+006      0 'Imported_Specified_Head__Layer1_1'  # Data Set 6: Layer Row Column Shead IFACE boundname
     1    31    18  1.309090000000E+006      0 'Imported_Specified_Head__Layer1_1'  # Data Set 6: Layer Row Column Shead IFACE boundname
     1    31    19  1.310575000000E+006      0 'Imported_Specified_Head__Layer1_1'  # Data Set 6: Layer Row Column Shead IFACE boundname
     1    31    20  1.312602000000E+006      0 'Imported_Specified_Head__Layer1_1'  # Data Set 6: Layer Row Column Shead IFACE boundname
     1    31    21  1.315123000000E+006      0 'Imported_Specified_Head__Layer1_1'  # Data Set 6: Layer Row Column Shead IFACE boundname
     1    31    22  1.318083000000E+006      0 'Imported_Specified_Head__Layer1_1'  # Data Set 6: Layer Row Column Shead IFACE boundname
     1    31    23  1.321425000000E+006      0 'Imported_Specified_Head__Layer1_1'  # Data Set 6: Layer Row Column Shead IFACE boundname
     1    31    24  1.325090000000E+006      0 'Imported_Specified_Head__Layer1_1'  # Data Set 6: Layer Row Column Shead IFACE boundname
     1    31    25  1.329020000000E+006      0 'Imported_Specified_Head__Layer1_1'  # Data Set 6: Layer Row Column Shead IFACE boundname
     1    31    26  1.333162000000E+006      0 'Imported_Specified_Head__Layer1_1'  # Data Set 6: Layer Row Column Shead IFACE boundname
     1    31    27  1.337467000000E+006      0 'Imported_Specified_Head__Layer1_1'  # Data Set 6: Layer Row Column Shead IFACE boundname
     1    31    28  1.341892000000E+006      0 'Imported_Specified_Head__Layer1_1'  # Data Set 6: Layer Row Column Shead IFACE boundname
     1    31    29  1.346399000000E+006      0 'Imported_Specified_Head__Layer1_1'  # Data Set 6: Layer Row Column Shead IFACE boundname
     1    31    30  1.350956000000E+006      0 'Imported_Specified_Head__Layer1_1'  # Data Set 6: Layer Row Column Shead IFACE boundname
     1    31    31  1.355536000000E+006      0 'Imported_Specified_Head__Layer1_1'  # Data Set 6: Layer Row Column Shead IFACE boundname
END PERIOD 

