# Discretization File created on 2/19/2019 by ModelMuse version 3.10.0.42.
# MT3DMS benchmark test problem #6
# transport in 2-D radial flow field during an injection/withdrawl cycle
# Upper left corner: (0, 0)
# Lower left corner: (0, -27900)
# Upper right corner: (27900, 0)
# Lower right corner: (27900, -27900)
# Grid angle (in degrees counterclockwise): 0
BEGIN OPTIONS
  LENGTH_UNITS FEET
  XORIGIN  0.000000000000E+000 
  YORIGIN -2.790000000000E+004 
  ANGROT  0.000000000000E+000 
END OPTIONS

BEGIN DIMENSIONS
  NLAY      1
  NROW     31
  NCOL     31
END DIMENSIONS


BEGIN GRIDDATA
  DELR LAYERED
    INTERNAL IPRN     12 # DELR
        9.000000000000E+002   9.000000000000E+002   9.000000000000E+002   9.000000000000E+002   9.000000000000E+002   9.000000000000E+002   9.000000000000E+002   9.000000000000E+002   9.000000000000E+002   9.000000000000E+002 
        9.000000000000E+002   9.000000000000E+002   9.000000000000E+002   9.000000000000E+002   9.000000000000E+002   9.000000000000E+002   9.000000000000E+002   9.000000000000E+002   9.000000000000E+002   9.000000000000E+002 
        9.000000000000E+002   9.000000000000E+002   9.000000000000E+002   9.000000000000E+002   9.000000000000E+002   9.000000000000E+002   9.000000000000E+002   9.000000000000E+002   9.000000000000E+002   9.000000000000E+002 
        9.000000000000E+002 
  DELC LAYERED
    INTERNAL IPRN     12 # DELC
        9.000000000000E+002   9.000000000000E+002   9.000000000000E+002   9.000000000000E+002   9.000000000000E+002   9.000000000000E+002   9.000000000000E+002   9.000000000000E+002   9.000000000000E+002   9.000000000000E+002 
        9.000000000000E+002   9.000000000000E+002   9.000000000000E+002   9.000000000000E+002   9.000000000000E+002   9.000000000000E+002   9.000000000000E+002   9.000000000000E+002   9.000000000000E+002   9.000000000000E+002 
        9.000000000000E+002   9.000000000000E+002   9.000000000000E+002   9.000000000000E+002   9.000000000000E+002   9.000000000000E+002   9.000000000000E+002   9.000000000000E+002   9.000000000000E+002   9.000000000000E+002 
        9.000000000000E+002 
  TOP LAYERED IPRN    12
    CONSTANT   2.000000000000E+001  # TOP

  BOTM LAYERED IPRN    12
    CONSTANT   0.000000000000E+000  # BOTM, Layer 1

  IDOMAIN LAYERED IPRN     5
    CONSTANT      1 # IDOMAIN 1
END GRIDDATA

