# DIS package for  MODFLOW-2005, generated by Flopy.
         6         1       101         3         4         2
  0  0  0  0  0  0
CONSTANT    1.000000E+01                           #delr                          
CONSTANT    1.000000E+00                           #delc                          
CONSTANT    6.000000E+01                           #model_top                     
INTERNAL               1 (101E15.6) -1 #botm layer 1                  
   5.000000E+01   5.000000E+01   5.000000E+01   5.000000E+01   5.000000E+01   5.000000E+01   5.000000E+01   5.000000E+01   5.000000E+01   5.000000E+01   5.000000E+01   5.000000E+01   5.000000E+01   5.000000E+01   5.000000E+01   5.000000E+01   5.000000E+01   5.000000E+01   5.000000E+01   5.000000E+01   5.000000E+01   5.000000E+01   5.000000E+01   5.000000E+01   5.000000E+01   5.000000E+01   5.000000E+01   5.000000E+01   5.000000E+01   5.000000E+01   5.000000E+01   5.000000E+01   5.000000E+01   5.000000E+01   5.000000E+01   5.000000E+01   5.000000E+01   5.000000E+01   5.000000E+01   5.000000E+01   5.000000E+01   5.000000E+01   5.000000E+01   5.000000E+01   5.000000E+01   5.000000E+01   5.000000E+01   5.000000E+01   5.000000E+01   5.000000E+01   5.000000E+01   5.000000E+01   5.000000E+01   5.000000E+01   5.000000E+01   5.000000E+01   5.000000E+01   5.000000E+01   5.000000E+01   5.000000E+01   5.000000E+01   5.000000E+01   5.000000E+01   5.000000E+01   5.000000E+01   5.000000E+01   5.000000E+01   5.000000E+01   5.000000E+01   5.000000E+01   5.000000E+01   5.000000E+01   5.000000E+01   5.000000E+01   5.000000E+01   5.000000E+01   5.000000E+01   5.000000E+01   5.000000E+01   5.000000E+01   5.000000E+01   5.000000E+01   5.000000E+01   5.000000E+01   5.000000E+01   5.000000E+01   5.000000E+01   5.000000E+01   5.000000E+01   5.000000E+01   5.000000E+01   5.000000E+01   5.000000E+01   5.000000E+01   5.000000E+01   5.000000E+01   5.000000E+01   5.000000E+01   5.000000E+01   5.000000E+01   5.000000E+01
INTERNAL               1 (101E15.6) -1 #botm layer 2                  
   4.000000E+01   4.000000E+01   4.000000E+01   4.000000E+01   4.000000E+01   4.000000E+01   4.000000E+01   4.000000E+01   4.000000E+01   4.000000E+01   4.000000E+01   4.000000E+01   4.000000E+01   4.000000E+01   4.000000E+01   4.000000E+01   4.000000E+01   4.000000E+01   4.000000E+01   4.000000E+01   4.000000E+01   4.000000E+01   4.000000E+01   4.000000E+01   4.000000E+01   4.000000E+01   4.000000E+01   4.000000E+01   4.000000E+01   4.000000E+01   4.000000E+01   4.000000E+01   4.000000E+01   4.000000E+01   4.000000E+01   4.000000E+01   4.000000E+01   4.000000E+01   4.000000E+01   4.000000E+01   4.000000E+01   4.000000E+01   4.000000E+01   4.000000E+01   4.000000E+01   4.000000E+01   4.000000E+01   4.000000E+01   4.000000E+01   4.000000E+01   4.000000E+01   4.000000E+01   4.000000E+01   4.000000E+01   4.000000E+01   4.000000E+01   4.000000E+01   4.000000E+01   4.000000E+01   4.000000E+01   4.000000E+01   4.000000E+01   4.000000E+01   4.000000E+01   4.000000E+01   4.000000E+01   4.000000E+01   4.000000E+01   4.000000E+01   4.000000E+01   4.000000E+01   4.000000E+01   4.000000E+01   4.000000E+01   4.000000E+01   4.000000E+01   4.000000E+01   4.000000E+01   4.000000E+01   4.000000E+01   4.000000E+01   4.000000E+01   4.000000E+01   4.000000E+01   4.000000E+01   4.000000E+01   4.000000E+01   4.000000E+01   4.000000E+01   4.000000E+01   4.000000E+01   4.000000E+01   4.000000E+01   4.000000E+01   4.000000E+01   4.000000E+01   4.000000E+01   4.000000E+01   4.000000E+01   4.000000E+01   4.000000E+01
INTERNAL               1 (101E15.6) -1 #botm layer 3                  
   3.000000E+01   3.000000E+01   3.000000E+01   3.000000E+01   3.000000E+01   3.000000E+01   3.000000E+01   3.000000E+01   3.000000E+01   3.000000E+01   3.000000E+01   3.000000E+01   3.000000E+01   3.000000E+01   3.000000E+01   3.000000E+01   3.000000E+01   3.000000E+01   3.000000E+01   3.000000E+01   3.000000E+01   3.000000E+01   3.000000E+01   3.000000E+01   3.000000E+01   3.000000E+01   3.000000E+01   3.000000E+01   3.000000E+01   3.000000E+01   3.000000E+01   3.000000E+01   3.000000E+01   3.000000E+01   3.000000E+01   3.000000E+01   3.000000E+01   3.000000E+01   3.000000E+01   3.000000E+01   3.000000E+01   3.000000E+01   3.000000E+01   3.000000E+01   3.000000E+01   3.000000E+01   3.000000E+01   3.000000E+01   3.000000E+01   3.000000E+01   3.000000E+01   3.000000E+01   3.000000E+01   3.000000E+01   3.000000E+01   3.000000E+01   3.000000E+01   3.000000E+01   3.000000E+01   3.000000E+01   3.000000E+01   3.000000E+01   3.000000E+01   3.000000E+01   3.000000E+01   3.000000E+01   3.000000E+01   3.000000E+01   3.000000E+01   3.000000E+01   3.000000E+01   3.000000E+01   3.000000E+01   3.000000E+01   3.000000E+01   3.000000E+01   3.000000E+01   3.000000E+01   3.000000E+01   3.000000E+01   3.000000E+01   3.000000E+01   3.000000E+01   3.000000E+01   3.000000E+01   3.000000E+01   3.000000E+01   3.000000E+01   3.000000E+01   3.000000E+01   3.000000E+01   3.000000E+01   3.000000E+01   3.000000E+01   3.000000E+01   3.000000E+01   3.000000E+01   3.000000E+01   3.000000E+01   3.000000E+01   3.000000E+01
INTERNAL               1 (101E15.6) -1 #botm layer 4                  
   2.000000E+01   2.000000E+01   2.000000E+01   2.000000E+01   2.000000E+01   2.000000E+01   2.000000E+01   2.000000E+01   2.000000E+01   2.000000E+01   2.000000E+01   2.000000E+01   2.000000E+01   2.000000E+01   2.000000E+01   2.000000E+01   2.000000E+01   2.000000E+01   2.000000E+01   2.000000E+01   2.000000E+01   2.000000E+01   2.000000E+01   2.000000E+01   2.000000E+01   2.000000E+01   2.000000E+01   2.000000E+01   2.000000E+01   2.000000E+01   2.000000E+01   2.000000E+01   2.000000E+01   2.000000E+01   2.000000E+01   2.000000E+01   2.000000E+01   2.000000E+01   2.000000E+01   2.000000E+01   2.000000E+01   2.000000E+01   2.000000E+01   2.000000E+01   2.000000E+01   2.000000E+01   2.000000E+01   2.000000E+01   2.000000E+01   2.000000E+01   2.000000E+01   2.000000E+01   2.000000E+01   2.000000E+01   2.000000E+01   2.000000E+01   2.000000E+01   2.000000E+01   2.000000E+01   2.000000E+01   2.000000E+01   2.000000E+01   2.000000E+01   2.000000E+01   2.000000E+01   2.000000E+01   2.000000E+01   2.000000E+01   2.000000E+01   2.000000E+01   2.000000E+01   2.000000E+01   2.000000E+01   2.000000E+01   2.000000E+01   2.000000E+01   2.000000E+01   2.000000E+01   2.000000E+01   2.000000E+01   2.000000E+01   2.000000E+01   2.000000E+01   2.000000E+01   2.000000E+01   2.000000E+01   2.000000E+01   2.000000E+01   2.000000E+01   2.000000E+01   2.000000E+01   2.000000E+01   2.000000E+01   2.000000E+01   2.000000E+01   2.000000E+01   2.000000E+01   2.000000E+01   2.000000E+01   2.000000E+01   2.000000E+01
INTERNAL               1 (101E15.6) -1 #botm layer 5                  
   1.000000E+01   1.000000E+01   1.000000E+01   1.000000E+01   1.000000E+01   1.000000E+01   1.000000E+01   1.000000E+01   1.000000E+01   1.000000E+01   1.000000E+01   1.000000E+01   1.000000E+01   1.000000E+01   1.000000E+01   1.000000E+01   1.000000E+01   1.000000E+01   1.000000E+01   1.000000E+01   1.000000E+01   1.000000E+01   1.000000E+01   1.000000E+01   1.000000E+01   1.000000E+01   1.000000E+01   1.000000E+01   1.000000E+01   1.000000E+01   1.000000E+01   1.000000E+01   1.000000E+01   1.000000E+01   1.000000E+01   1.000000E+01   1.000000E+01   1.000000E+01   1.000000E+01   1.000000E+01   1.000000E+01   1.000000E+01   1.000000E+01   1.000000E+01   1.000000E+01   1.000000E+01   1.000000E+01   1.000000E+01   1.000000E+01   1.000000E+01   1.000000E+01   1.000000E+01   1.000000E+01   1.000000E+01   1.000000E+01   1.000000E+01   1.000000E+01   1.000000E+01   1.000000E+01   1.000000E+01   1.000000E+01   1.000000E+01   1.000000E+01   1.000000E+01   1.000000E+01   1.000000E+01   1.000000E+01   1.000000E+01   1.000000E+01   1.000000E+01   1.000000E+01   1.000000E+01   1.000000E+01   1.000000E+01   1.000000E+01   1.000000E+01   1.000000E+01   1.000000E+01   1.000000E+01   1.000000E+01   1.000000E+01   1.000000E+01   1.000000E+01   1.000000E+01   1.000000E+01   1.000000E+01   1.000000E+01   1.000000E+01   1.000000E+01   1.000000E+01   1.000000E+01   1.000000E+01   1.000000E+01   1.000000E+01   1.000000E+01   1.000000E+01   1.000000E+01   1.000000E+01   1.000000E+01   1.000000E+01   1.000000E+01
INTERNAL               1 (101E15.6) -1 #botm layer 6                  
   0.000000E+00   0.000000E+00   0.000000E+00   0.000000E+00   0.000000E+00   0.000000E+00   0.000000E+00   0.000000E+00   0.000000E+00   0.000000E+00   0.000000E+00   0.000000E+00   0.000000E+00   0.000000E+00   0.000000E+00   0.000000E+00   0.000000E+00   0.000000E+00   0.000000E+00   0.000000E+00   0.000000E+00   0.000000E+00   0.000000E+00   0.000000E+00   0.000000E+00   0.000000E+00   0.000000E+00   0.000000E+00   0.000000E+00   0.000000E+00   0.000000E+00   0.000000E+00   0.000000E+00   0.000000E+00   0.000000E+00   0.000000E+00   0.000000E+00   0.000000E+00   0.000000E+00   0.000000E+00   0.000000E+00   0.000000E+00   0.000000E+00   0.000000E+00   0.000000E+00   0.000000E+00   0.000000E+00   0.000000E+00   0.000000E+00   0.000000E+00   0.000000E+00   0.000000E+00   0.000000E+00   0.000000E+00   0.000000E+00   0.000000E+00   0.000000E+00   0.000000E+00   0.000000E+00   0.000000E+00   0.000000E+00   0.000000E+00   0.000000E+00   0.000000E+00   0.000000E+00   0.000000E+00   0.000000E+00   0.000000E+00   0.000000E+00   0.000000E+00   0.000000E+00   0.000000E+00   0.000000E+00   0.000000E+00   0.000000E+00   0.000000E+00   0.000000E+00   0.000000E+00   0.000000E+00   0.000000E+00   0.000000E+00   0.000000E+00   0.000000E+00   0.000000E+00   0.000000E+00   0.000000E+00   0.000000E+00   0.000000E+00   0.000000E+00   0.000000E+00   0.000000E+00   0.000000E+00   0.000000E+00   0.000000E+00   0.000000E+00   0.000000E+00   0.000000E+00   0.000000E+00   0.000000E+00   0.000000E+00   0.000000E+00
    200.000000            10  1.000000  SS 
    200.000000            10  1.000000  TR 
    200.000000            10  1.000000  TR 
