# Name file for MODFLOW-NWT, generated by Flopy version 3.2.10.
#xul:0; yul:1; rotation:0; proj4_str:+init=EPSG:4326; units:meters; lenuni:2; length_multiplier:1.0 ;start_datetime:1-1-1970
LIST               2  p01SpatialStresses.list
DIS               11  p01SpatialStresses.dis 
BAS6              13  p01SpatialStresses.bas 
LPF               15  p01SpatialStresses.lpf 
PCG               27  p01SpatialStresses.pcg 
LMT6              30  p01SpatialStresses.lmt 
WEL               20  p01SpatialStresses.wel 
RCH               19  p01SpatialStresses.rch 
EVT               22  p01SpatialStresses.evt 
