# BAS6 package for  MODFLOW-2005, generated by Flopy.
FREE
INTERNAL               1   (101I10) -1 #ibound layer 1                
        -1         1         1         1         1         1         1         1         1         1         1         1         1         1         1         1         1         1         1         1         1         1         1         1         1         1         1         1         1         1         1         1         1         1         1         1         1         1         1         1         1         1         1         1         1         1         1         1         1         1         1         1         1         1         1         1         1         1         1         1         1         1         1         1         1         1         1         1         1         1         1         1         1         1         1         1         1         1         1         1         1         1         1         1         1         1         1         1         1         1         1         1         1         1         1         1         1         1         1         1        -1
INTERNAL               1   (101I10) -1 #ibound layer 2                
        -1         1         1         1         1         1         1         1         1         1         1         1         1         1         1         1         1         1         1         1         1         1         1         1         1         1         1         1         1         1         1         1         1         1         1         1         1         1         1         1         1         1         1         1         1         1         1         1         1         1         1         1         1         1         1         1         1         1         1         1         1         1         1         1         1         1         1         1         1         1         1         1         1         1         1         1         1         1         1         1         1         1         1         1         1         1         1         1         1         1         1         1         1         1         1         1         1         1         1         1        -1
INTERNAL               1   (101I10) -1 #ibound layer 3                
        -1         1         1         1         1         1         1         1         1         1         1         1         1         1         1         1         1         1         1         1         1         1         1         1         1         1         1         1         1         1         1         1         1         1         1         1         1         1         1         1         1         1         1         1         1         1         1         1         1         1         1         1         1         1         1         1         1         1         1         1         1         1         1         1         1         1         1         1         1         1         1         1         1         1         1         1         1         1         1         1         1         1         1         1         1         1         1         1         1         1         1         1         1         1         1         1         1         1         1         1        -1
INTERNAL               1   (101I10) -1 #ibound layer 4                
        -1         1         1         1         1         1         1         1         1         1         1         1         1         1         1         1         1         1         1         1         1         1         1         1         1         1         1         1         1         1         1         1         1         1         1         1         1         1         1         1         1         1         1         1         1         1         1         1         1         1         1         1         1         1         1         1         1         1         1         1         1         1         1         1         1         1         1         1         1         1         1         1         1         1         1         1         1         1         1         1         1         1         1         1         1         1         1         1         1         1         1         1         1         1         1         1         1         1         1         1        -1
INTERNAL               1   (101I10) -1 #ibound layer 5                
        -1         1         1         1         1         1         1         1         1         1         1         1         1         1         1         1         1         1         1         1         1         1         1         1         1         1         1         1         1         1         1         1         1         1         1         1         1         1         1         1         1         1         1         1         1         1         1         1         1         1         1         1         1         1         1         1         1         1         1         1         1         1         1         1         1         1         1         1         1         1         1         1         1         1         1         1         1         1         1         1         1         1         1         1         1         1         1         1         1         1         1         1         1         1         1         1         1         1         1         1        -1
INTERNAL               1   (101I10) -1 #ibound layer 6                
        -1         1         1         1         1         1         1         1         1         1         1         1         1         1         1         1         1         1         1         1         1         1         1         1         1         1         1         1         1         1         1         1         1         1         1         1         1         1         1         1         1         1         1         1         1         1         1         1         1         1         1         1         1         1         1         1         1         1         1         1         1         1         1         1         1         1         1         1         1         1         1         1         1         1         1         1         1         1         1         1         1         1         1         1         1         1         1         1         1         1         1         1         1         1         1         1         1         1         1         1        -1
   -999.99
INTERNAL               1 (101E15.6) -1 #strt layer 1                  
   6.000000E+01   6.000000E+01   6.000000E+01   6.000000E+01   6.000000E+01   6.000000E+01   6.000000E+01   6.000000E+01   6.000000E+01   6.000000E+01   6.000000E+01   6.000000E+01   6.000000E+01   6.000000E+01   6.000000E+01   6.000000E+01   6.000000E+01   6.000000E+01   6.000000E+01   6.000000E+01   6.000000E+01   6.000000E+01   6.000000E+01   6.000000E+01   6.000000E+01   6.000000E+01   6.000000E+01   6.000000E+01   6.000000E+01   6.000000E+01   6.000000E+01   6.000000E+01   6.000000E+01   6.000000E+01   6.000000E+01   6.000000E+01   6.000000E+01   6.000000E+01   6.000000E+01   6.000000E+01   6.000000E+01   6.000000E+01   6.000000E+01   6.000000E+01   6.000000E+01   6.000000E+01   6.000000E+01   6.000000E+01   6.000000E+01   6.000000E+01   6.000000E+01   6.000000E+01   6.000000E+01   6.000000E+01   6.000000E+01   6.000000E+01   6.000000E+01   6.000000E+01   6.000000E+01   6.000000E+01   6.000000E+01   6.000000E+01   6.000000E+01   6.000000E+01   6.000000E+01   6.000000E+01   6.000000E+01   6.000000E+01   6.000000E+01   6.000000E+01   6.000000E+01   6.000000E+01   6.000000E+01   6.000000E+01   6.000000E+01   6.000000E+01   6.000000E+01   6.000000E+01   6.000000E+01   6.000000E+01   6.000000E+01   6.000000E+01   6.000000E+01   6.000000E+01   6.000000E+01   6.000000E+01   6.000000E+01   6.000000E+01   6.000000E+01   6.000000E+01   6.000000E+01   6.000000E+01   6.000000E+01   6.000000E+01   6.000000E+01   6.000000E+01   6.000000E+01   6.000000E+01   6.000000E+01   6.000000E+01   5.100000E+01
INTERNAL               1 (101E15.6) -1 #strt layer 2                  
   6.000000E+01   6.000000E+01   6.000000E+01   6.000000E+01   6.000000E+01   6.000000E+01   6.000000E+01   6.000000E+01   6.000000E+01   6.000000E+01   6.000000E+01   6.000000E+01   6.000000E+01   6.000000E+01   6.000000E+01   6.000000E+01   6.000000E+01   6.000000E+01   6.000000E+01   6.000000E+01   6.000000E+01   6.000000E+01   6.000000E+01   6.000000E+01   6.000000E+01   6.000000E+01   6.000000E+01   6.000000E+01   6.000000E+01   6.000000E+01   6.000000E+01   6.000000E+01   6.000000E+01   6.000000E+01   6.000000E+01   6.000000E+01   6.000000E+01   6.000000E+01   6.000000E+01   6.000000E+01   6.000000E+01   6.000000E+01   6.000000E+01   6.000000E+01   6.000000E+01   6.000000E+01   6.000000E+01   6.000000E+01   6.000000E+01   6.000000E+01   6.000000E+01   6.000000E+01   6.000000E+01   6.000000E+01   6.000000E+01   6.000000E+01   6.000000E+01   6.000000E+01   6.000000E+01   6.000000E+01   6.000000E+01   6.000000E+01   6.000000E+01   6.000000E+01   6.000000E+01   6.000000E+01   6.000000E+01   6.000000E+01   6.000000E+01   6.000000E+01   6.000000E+01   6.000000E+01   6.000000E+01   6.000000E+01   6.000000E+01   6.000000E+01   6.000000E+01   6.000000E+01   6.000000E+01   6.000000E+01   6.000000E+01   6.000000E+01   6.000000E+01   6.000000E+01   6.000000E+01   6.000000E+01   6.000000E+01   6.000000E+01   6.000000E+01   6.000000E+01   6.000000E+01   6.000000E+01   6.000000E+01   6.000000E+01   6.000000E+01   6.000000E+01   6.000000E+01   6.000000E+01   6.000000E+01   6.000000E+01   5.100000E+01
INTERNAL               1 (101E15.6) -1 #strt layer 3                  
   6.000000E+01   6.000000E+01   6.000000E+01   6.000000E+01   6.000000E+01   6.000000E+01   6.000000E+01   6.000000E+01   6.000000E+01   6.000000E+01   6.000000E+01   6.000000E+01   6.000000E+01   6.000000E+01   6.000000E+01   6.000000E+01   6.000000E+01   6.000000E+01   6.000000E+01   6.000000E+01   6.000000E+01   6.000000E+01   6.000000E+01   6.000000E+01   6.000000E+01   6.000000E+01   6.000000E+01   6.000000E+01   6.000000E+01   6.000000E+01   6.000000E+01   6.000000E+01   6.000000E+01   6.000000E+01   6.000000E+01   6.000000E+01   6.000000E+01   6.000000E+01   6.000000E+01   6.000000E+01   6.000000E+01   6.000000E+01   6.000000E+01   6.000000E+01   6.000000E+01   6.000000E+01   6.000000E+01   6.000000E+01   6.000000E+01   6.000000E+01   6.000000E+01   6.000000E+01   6.000000E+01   6.000000E+01   6.000000E+01   6.000000E+01   6.000000E+01   6.000000E+01   6.000000E+01   6.000000E+01   6.000000E+01   6.000000E+01   6.000000E+01   6.000000E+01   6.000000E+01   6.000000E+01   6.000000E+01   6.000000E+01   6.000000E+01   6.000000E+01   6.000000E+01   6.000000E+01   6.000000E+01   6.000000E+01   6.000000E+01   6.000000E+01   6.000000E+01   6.000000E+01   6.000000E+01   6.000000E+01   6.000000E+01   6.000000E+01   6.000000E+01   6.000000E+01   6.000000E+01   6.000000E+01   6.000000E+01   6.000000E+01   6.000000E+01   6.000000E+01   6.000000E+01   6.000000E+01   6.000000E+01   6.000000E+01   6.000000E+01   6.000000E+01   6.000000E+01   6.000000E+01   6.000000E+01   6.000000E+01   5.100000E+01
INTERNAL               1 (101E15.6) -1 #strt layer 4                  
   6.000000E+01   6.000000E+01   6.000000E+01   6.000000E+01   6.000000E+01   6.000000E+01   6.000000E+01   6.000000E+01   6.000000E+01   6.000000E+01   6.000000E+01   6.000000E+01   6.000000E+01   6.000000E+01   6.000000E+01   6.000000E+01   6.000000E+01   6.000000E+01   6.000000E+01   6.000000E+01   6.000000E+01   6.000000E+01   6.000000E+01   6.000000E+01   6.000000E+01   6.000000E+01   6.000000E+01   6.000000E+01   6.000000E+01   6.000000E+01   6.000000E+01   6.000000E+01   6.000000E+01   6.000000E+01   6.000000E+01   6.000000E+01   6.000000E+01   6.000000E+01   6.000000E+01   6.000000E+01   6.000000E+01   6.000000E+01   6.000000E+01   6.000000E+01   6.000000E+01   6.000000E+01   6.000000E+01   6.000000E+01   6.000000E+01   6.000000E+01   6.000000E+01   6.000000E+01   6.000000E+01   6.000000E+01   6.000000E+01   6.000000E+01   6.000000E+01   6.000000E+01   6.000000E+01   6.000000E+01   6.000000E+01   6.000000E+01   6.000000E+01   6.000000E+01   6.000000E+01   6.000000E+01   6.000000E+01   6.000000E+01   6.000000E+01   6.000000E+01   6.000000E+01   6.000000E+01   6.000000E+01   6.000000E+01   6.000000E+01   6.000000E+01   6.000000E+01   6.000000E+01   6.000000E+01   6.000000E+01   6.000000E+01   6.000000E+01   6.000000E+01   6.000000E+01   6.000000E+01   6.000000E+01   6.000000E+01   6.000000E+01   6.000000E+01   6.000000E+01   6.000000E+01   6.000000E+01   6.000000E+01   6.000000E+01   6.000000E+01   6.000000E+01   6.000000E+01   6.000000E+01   6.000000E+01   6.000000E+01   5.100000E+01
INTERNAL               1 (101E15.6) -1 #strt layer 5                  
   6.000000E+01   6.000000E+01   6.000000E+01   6.000000E+01   6.000000E+01   6.000000E+01   6.000000E+01   6.000000E+01   6.000000E+01   6.000000E+01   6.000000E+01   6.000000E+01   6.000000E+01   6.000000E+01   6.000000E+01   6.000000E+01   6.000000E+01   6.000000E+01   6.000000E+01   6.000000E+01   6.000000E+01   6.000000E+01   6.000000E+01   6.000000E+01   6.000000E+01   6.000000E+01   6.000000E+01   6.000000E+01   6.000000E+01   6.000000E+01   6.000000E+01   6.000000E+01   6.000000E+01   6.000000E+01   6.000000E+01   6.000000E+01   6.000000E+01   6.000000E+01   6.000000E+01   6.000000E+01   6.000000E+01   6.000000E+01   6.000000E+01   6.000000E+01   6.000000E+01   6.000000E+01   6.000000E+01   6.000000E+01   6.000000E+01   6.000000E+01   6.000000E+01   6.000000E+01   6.000000E+01   6.000000E+01   6.000000E+01   6.000000E+01   6.000000E+01   6.000000E+01   6.000000E+01   6.000000E+01   6.000000E+01   6.000000E+01   6.000000E+01   6.000000E+01   6.000000E+01   6.000000E+01   6.000000E+01   6.000000E+01   6.000000E+01   6.000000E+01   6.000000E+01   6.000000E+01   6.000000E+01   6.000000E+01   6.000000E+01   6.000000E+01   6.000000E+01   6.000000E+01   6.000000E+01   6.000000E+01   6.000000E+01   6.000000E+01   6.000000E+01   6.000000E+01   6.000000E+01   6.000000E+01   6.000000E+01   6.000000E+01   6.000000E+01   6.000000E+01   6.000000E+01   6.000000E+01   6.000000E+01   6.000000E+01   6.000000E+01   6.000000E+01   6.000000E+01   6.000000E+01   6.000000E+01   6.000000E+01   5.100000E+01
INTERNAL               1 (101E15.6) -1 #strt layer 6                  
   6.000000E+01   6.000000E+01   6.000000E+01   6.000000E+01   6.000000E+01   6.000000E+01   6.000000E+01   6.000000E+01   6.000000E+01   6.000000E+01   6.000000E+01   6.000000E+01   6.000000E+01   6.000000E+01   6.000000E+01   6.000000E+01   6.000000E+01   6.000000E+01   6.000000E+01   6.000000E+01   6.000000E+01   6.000000E+01   6.000000E+01   6.000000E+01   6.000000E+01   6.000000E+01   6.000000E+01   6.000000E+01   6.000000E+01   6.000000E+01   6.000000E+01   6.000000E+01   6.000000E+01   6.000000E+01   6.000000E+01   6.000000E+01   6.000000E+01   6.000000E+01   6.000000E+01   6.000000E+01   6.000000E+01   6.000000E+01   6.000000E+01   6.000000E+01   6.000000E+01   6.000000E+01   6.000000E+01   6.000000E+01   6.000000E+01   6.000000E+01   6.000000E+01   6.000000E+01   6.000000E+01   6.000000E+01   6.000000E+01   6.000000E+01   6.000000E+01   6.000000E+01   6.000000E+01   6.000000E+01   6.000000E+01   6.000000E+01   6.000000E+01   6.000000E+01   6.000000E+01   6.000000E+01   6.000000E+01   6.000000E+01   6.000000E+01   6.000000E+01   6.000000E+01   6.000000E+01   6.000000E+01   6.000000E+01   6.000000E+01   6.000000E+01   6.000000E+01   6.000000E+01   6.000000E+01   6.000000E+01   6.000000E+01   6.000000E+01   6.000000E+01   6.000000E+01   6.000000E+01   6.000000E+01   6.000000E+01   6.000000E+01   6.000000E+01   6.000000E+01   6.000000E+01   6.000000E+01   6.000000E+01   6.000000E+01   6.000000E+01   6.000000E+01   6.000000E+01   6.000000E+01   6.000000E+01   6.000000E+01   5.100000E+01
