# EVT package for  MODFLOW-2005, generated by Flopy.
         3         0
         1         1         1         1 # Evapotranspiration  dataset 5 for stress period 1
CONSTANT    6.000000E+01                           #surf1                         
INTERNAL               1 (101E15.6) -1 #etvr1                         
   0.000000E+00   0.000000E+00   0.000000E+00   0.000000E+00   0.000000E+00   0.000000E+00   0.000000E+00   0.000000E+00   0.000000E+00   0.000000E+00   0.000000E+00   0.000000E+00   0.000000E+00   0.000000E+00   0.000000E+00   0.000000E+00   0.000000E+00   0.000000E+00   0.000000E+00   0.000000E+00   0.000000E+00   0.000000E+00   0.000000E+00   0.000000E+00   0.000000E+00   0.000000E+00   0.000000E+00   0.000000E+00   0.000000E+00   0.000000E+00   0.000000E+00   0.000000E+00   0.000000E+00   0.000000E+00   0.000000E+00   0.000000E+00   0.000000E+00   0.000000E+00   0.000000E+00   0.000000E+00   0.000000E+00   0.000000E+00   0.000000E+00   0.000000E+00   0.000000E+00   0.000000E+00   0.000000E+00   0.000000E+00   0.000000E+00   0.000000E+00   0.000000E+00   0.000000E+00   0.000000E+00   0.000000E+00   0.000000E+00   0.000000E+00   0.000000E+00   0.000000E+00   0.000000E+00   0.000000E+00   0.000000E+00   0.000000E+00   0.000000E+00   0.000000E+00   0.000000E+00   0.000000E+00   0.000000E+00   0.000000E+00   0.000000E+00   0.000000E+00   0.000000E+00   0.000000E+00   0.000000E+00   0.000000E+00   0.000000E+00   0.000000E+00   0.000000E+00   0.000000E+00   0.000000E+00   0.000000E+00   0.000000E+00   0.000000E+00   0.000000E+00   0.000000E+00   0.000000E+00   0.000000E+00   0.000000E+00   0.000000E+00   0.000000E+00   0.000000E+00   0.000000E+00   0.000000E+00   0.000000E+00   0.000000E+00   0.000000E+00   0.000000E+00   0.000000E+00   0.000000E+00   0.000000E+00   0.000000E+00   0.000000E+00
CONSTANT    1.000000E+01                           #exdp1                         
        -1         1        -1        -1 # Evapotranspiration  dataset 5 for stress period 2
INTERNAL               1 (101E15.6) -1 #etvr2                         
   0.000000E+00   1.500000E-03   1.500000E-03   1.500000E-03   1.500000E-03   1.500000E-03   1.500000E-03   1.500000E-03   1.500000E-03   1.500000E-03   1.500000E-03   1.500000E-03   1.500000E-03   1.500000E-03   1.500000E-03   1.500000E-03   1.500000E-03   1.500000E-03   1.500000E-03   1.500000E-03   1.500000E-03   1.500000E-03   1.500000E-03   1.500000E-03   1.500000E-03   1.500000E-03   1.500000E-03   1.500000E-03   1.500000E-03   1.500000E-03   1.500000E-03   1.500000E-03   1.500000E-03   1.500000E-03   1.500000E-03   1.500000E-03   1.500000E-03   1.500000E-03   1.500000E-03   1.500000E-03   1.500000E-03   1.500000E-03   1.500000E-03   1.500000E-03   1.500000E-03   1.500000E-03   1.500000E-03   1.500000E-03   1.500000E-03   1.500000E-03   1.500000E-03   1.500000E-03   1.500000E-03   1.500000E-03   1.500000E-03   1.500000E-03   1.500000E-03   1.500000E-03   1.500000E-03   1.500000E-03   1.500000E-03   1.500000E-03   1.500000E-03   1.500000E-03   1.500000E-03   1.500000E-03   1.500000E-03   1.500000E-03   1.500000E-03   1.500000E-03   1.500000E-03   1.500000E-03   1.500000E-03   1.500000E-03   1.500000E-03   1.500000E-03   1.500000E-03   1.500000E-03   1.500000E-03   1.500000E-03   1.500000E-03   1.500000E-03   1.500000E-03   1.500000E-03   1.500000E-03   1.500000E-03   1.500000E-03   1.500000E-03   1.500000E-03   1.500000E-03   1.500000E-03   1.500000E-03   1.500000E-03   1.500000E-03   1.500000E-03   1.500000E-03   1.500000E-03   1.500000E-03   1.500000E-03   1.500000E-03   0.000000E+00
        -1         1        -1        -1 # Evapotranspiration  dataset 5 for stress period 3
INTERNAL               1 (101E15.6) -1 #etvr3                         
   0.000000E+00   1.500000E-03   1.500000E-03   1.500000E-03   1.500000E-03   1.500000E-03   1.500000E-03   1.500000E-03   1.500000E-03   1.500000E-03   1.500000E-03   1.500000E-03   1.500000E-03   1.500000E-03   1.500000E-03   1.500000E-03   1.500000E-03   1.500000E-03   1.500000E-03   1.500000E-03   1.500000E-03   1.500000E-03   1.500000E-03   1.500000E-03   1.500000E-03   1.500000E-03   1.500000E-03   1.500000E-03   1.500000E-03   1.500000E-03   1.500000E-03   1.500000E-03   1.500000E-03   1.500000E-03   1.500000E-03   1.500000E-03   1.500000E-03   1.500000E-03   1.500000E-03   1.500000E-03   1.500000E-03   1.500000E-03   1.500000E-03   1.500000E-03   1.500000E-03   1.500000E-03   1.500000E-03   1.500000E-03   1.500000E-03   1.500000E-03   1.500000E-03   1.500000E-03   1.500000E-03   1.500000E-03   1.500000E-03   1.500000E-03   1.500000E-03   1.500000E-03   1.500000E-03   1.500000E-03   1.500000E-03   1.500000E-03   1.500000E-03   1.500000E-03   1.500000E-03   1.500000E-03   1.500000E-03   1.500000E-03   1.500000E-03   1.500000E-03   1.500000E-03   1.500000E-03   1.500000E-03   1.500000E-03   1.500000E-03   1.500000E-03   1.500000E-03   1.500000E-03   1.500000E-03   1.500000E-03   1.500000E-03   1.500000E-03   1.500000E-03   1.500000E-03   1.500000E-03   1.500000E-03   1.500000E-03   1.500000E-03   1.500000E-03   1.500000E-03   1.500000E-03   1.500000E-03   1.500000E-03   1.500000E-03   1.500000E-03   1.500000E-03   1.500000E-03   1.500000E-03   1.500000E-03   1.500000E-03   0.000000E+00
