# RCH package for  MODFLOW-2005, generated by Flopy.
         3         0
         1        -1 # Stress period 1
INTERNAL               1 (101E15.6) -1 #rech_1                        
   0.000000E+00   0.000000E+00   0.000000E+00   0.000000E+00   0.000000E+00   0.000000E+00   0.000000E+00   0.000000E+00   0.000000E+00   0.000000E+00   0.000000E+00   0.000000E+00   0.000000E+00   0.000000E+00   0.000000E+00   0.000000E+00   0.000000E+00   0.000000E+00   0.000000E+00   0.000000E+00   0.000000E+00   0.000000E+00   0.000000E+00   0.000000E+00   0.000000E+00   0.000000E+00   0.000000E+00   0.000000E+00   0.000000E+00   0.000000E+00   0.000000E+00   0.000000E+00   0.000000E+00   0.000000E+00   0.000000E+00   0.000000E+00   0.000000E+00   0.000000E+00   0.000000E+00   0.000000E+00   0.000000E+00   0.000000E+00   0.000000E+00   0.000000E+00   0.000000E+00   0.000000E+00   0.000000E+00   0.000000E+00   0.000000E+00   0.000000E+00   0.000000E+00   0.000000E+00   0.000000E+00   0.000000E+00   0.000000E+00   0.000000E+00   0.000000E+00   0.000000E+00   0.000000E+00   0.000000E+00   0.000000E+00   0.000000E+00   0.000000E+00   0.000000E+00   0.000000E+00   0.000000E+00   0.000000E+00   0.000000E+00   0.000000E+00   0.000000E+00   0.000000E+00   0.000000E+00   0.000000E+00   0.000000E+00   0.000000E+00   0.000000E+00   0.000000E+00   0.000000E+00   0.000000E+00   0.000000E+00   0.000000E+00   0.000000E+00   0.000000E+00   0.000000E+00   0.000000E+00   0.000000E+00   0.000000E+00   0.000000E+00   0.000000E+00   0.000000E+00   0.000000E+00   0.000000E+00   0.000000E+00   0.000000E+00   0.000000E+00   0.000000E+00   0.000000E+00   0.000000E+00   0.000000E+00   0.000000E+00   0.000000E+00
         1        -1 # Stress period 2
INTERNAL               1 (101E15.6) -1 #rech_2                        
   0.000000E+00   2.000000E-03   2.000000E-03   2.000000E-03   2.000000E-03   2.000000E-03   2.000000E-03   2.000000E-03   2.000000E-03   2.000000E-03   2.000000E-03   2.000000E-03   2.000000E-03   2.000000E-03   2.000000E-03   2.000000E-03   2.000000E-03   2.000000E-03   2.000000E-03   2.000000E-03   2.000000E-03   2.000000E-03   2.000000E-03   2.000000E-03   2.000000E-03   2.000000E-03   2.000000E-03   2.000000E-03   2.000000E-03   2.000000E-03   2.000000E-03   2.000000E-03   2.000000E-03   2.000000E-03   2.000000E-03   2.000000E-03   2.000000E-03   2.000000E-03   2.000000E-03   2.000000E-03   2.000000E-03   2.000000E-03   2.000000E-03   2.000000E-03   2.000000E-03   2.000000E-03   2.000000E-03   2.000000E-03   2.000000E-03   2.000000E-03   2.000000E-03   2.000000E-03   2.000000E-03   2.000000E-03   2.000000E-03   2.000000E-03   2.000000E-03   2.000000E-03   2.000000E-03   2.000000E-03   2.000000E-03   2.000000E-03   2.000000E-03   2.000000E-03   2.000000E-03   2.000000E-03   2.000000E-03   2.000000E-03   2.000000E-03   2.000000E-03   2.000000E-03   2.000000E-03   2.000000E-03   2.000000E-03   2.000000E-03   2.000000E-03   2.000000E-03   2.000000E-03   2.000000E-03   2.000000E-03   2.000000E-03   2.000000E-03   2.000000E-03   2.000000E-03   2.000000E-03   2.000000E-03   2.000000E-03   2.000000E-03   2.000000E-03   2.000000E-03   2.000000E-03   2.000000E-03   2.000000E-03   2.000000E-03   2.000000E-03   2.000000E-03   2.000000E-03   2.000000E-03   2.000000E-03   2.000000E-03   0.000000E+00
         1        -1 # Stress period 3
INTERNAL               1 (101E15.6) -1 #rech_3                        
   0.000000E+00   1.000000E-03   1.000000E-03   1.000000E-03   1.000000E-03   1.000000E-03   1.000000E-03   1.000000E-03   1.000000E-03   1.000000E-03   1.000000E-03   1.000000E-03   1.000000E-03   1.000000E-03   1.000000E-03   1.000000E-03   1.000000E-03   1.000000E-03   1.000000E-03   1.000000E-03   1.000000E-03   1.000000E-03   1.000000E-03   1.000000E-03   1.000000E-03   1.000000E-03   1.000000E-03   1.000000E-03   1.000000E-03   1.000000E-03   1.000000E-03   1.000000E-03   1.000000E-03   1.000000E-03   1.000000E-03   1.000000E-03   1.000000E-03   1.000000E-03   1.000000E-03   1.000000E-03   1.000000E-03   1.000000E-03   1.000000E-03   1.000000E-03   1.000000E-03   1.000000E-03   1.000000E-03   1.000000E-03   1.000000E-03   1.000000E-03   1.000000E-03   1.000000E-03   1.000000E-03   1.000000E-03   1.000000E-03   1.000000E-03   1.000000E-03   1.000000E-03   1.000000E-03   1.000000E-03   1.000000E-03   1.000000E-03   1.000000E-03   1.000000E-03   1.000000E-03   1.000000E-03   1.000000E-03   1.000000E-03   1.000000E-03   1.000000E-03   1.000000E-03   1.000000E-03   1.000000E-03   1.000000E-03   1.000000E-03   1.000000E-03   1.000000E-03   1.000000E-03   1.000000E-03   1.000000E-03   1.000000E-03   1.000000E-03   1.000000E-03   1.000000E-03   1.000000E-03   1.000000E-03   1.000000E-03   1.000000E-03   1.000000E-03   1.000000E-03   1.000000E-03   1.000000E-03   1.000000E-03   1.000000E-03   1.000000E-03   1.000000E-03   1.000000E-03   1.000000E-03   1.000000E-03   1.000000E-03   0.000000E+00
