# LMT6 package for  MODFLOW-2005, generated by Flopy.
OUTPUT_FILE_NAME   p01SpatialStresses.ftl
OUTPUT_FILE_UNIT   54
OUTPUT_FILE_HEADER extended
OUTPUT_FILE_FORMAT unformatted
