# WEL package for  MODFLOW-2005, generated by Flopy.
         1         0
         1         0 # stress period 1
         5         1        50   0.0000000E+00
         1         0 # stress period 2
         5         1        50  -1.0000000E+01
        -1         0 # stress period 3
