# Name File for MODFLOW created on 2/19/2019 by ModelMuse Version 3.10.0.42
LIST             11 ImportMt3dmsReinject.lst REPLACE
DATA(BINARY)      9 ImportMt3dmsReinject.cbc REPLACE
DIS              12 ImportMt3dmsReinject.dis OLD
BAS6             13 ImportMt3dmsReinject.bas OLD
OC               39 ImportMt3dmsReinject.oc OLD
DATA             37 ImportMt3dmsReinject.fhd REPLACE
DATA             38 ImportMt3dmsReinject.fdn REPLACE
SIP              35 ImportMt3dmsReinject.sip OLD
BCF6             64 ImportMt3dmsReinject.bcf OLD
LMT6            135 ImportMt3dmsReinject.lmt OLD
CHD              17 ImportMt3dmsReinject.chd OLD
WEL              20 ImportMt3dmsReinject.wel OLD
