# Output Control file created on 2/19/2019 by ModelMuse version 3.10.0.42.
BEGIN OPTIONS
  BUDGET FILEOUT  ImportedP1_Case1d.cbc
  HEAD FILEOUT    ImportedP1_Case1d.bhd
END OPTIONS

BEGIN PERIOD      1
  SAVE HEAD ALL
  PRINT BUDGET ALL
  SAVE BUDGET ALL
END PERIOD 

