# NPF: Node Property Flow package file created on 2/19/2019 by ModelMuse version 3.10.0.42.
BEGIN OPTIONS
    SAVE_FLOWS
END OPTIONS


BEGIN GRIDDATA
  ICELLTYPE LAYERED IPRN     5
    CONSTANT      0 # ICELLTYPE 1
    
  K 
    INTERNAL FACTOR 1.0 
    1.474000000000E-004   1.474000000000E-004   1.474000000000E-004   1.474000000000E-004   1.474000000000E-004   1.474000000000E-004   1.474000000000E-004   1.474000000000E-004   1.474000000000E-004   1.474000000000E-004   1.474000000000E-004   1.474000000000E-004   1.474000000000E-004   1.474000000000E-004 
    1.474000000000E-004   1.474000000000E-004   1.474000000000E-004   1.474000000000E-004   1.474000000000E-004   1.474000000000E-004   1.474000000000E-004   1.474000000000E-004   1.474000000000E-004   1.474000000000E-004   1.474000000000E-004   1.474000000000E-004   1.474000000000E-004   1.474000000000E-004 
    1.474000000000E-004   1.474000000000E-004   1.474000000000E-004   1.474000000000E-004   1.474000000000E-004   1.474000000000E-004   1.474000000000E-004   1.474000000000E-004   1.474000000000E-004   1.474000000000E-004   1.474000000000E-004   1.474000000000E-004   1.474000000000E-004   1.474000000000E-004 
    1.474000000000E-004   1.474000000000E-004   1.474000000000E-004   1.474000000000E-004   1.474000000000E-004   1.474000000000E-004   1.474000000000E-004   1.474000000000E-004   1.474000000000E-004   1.474000000000E-004   1.474000000000E-004   1.474000000000E-004   1.474000000000E-004   1.474000000000E-004 
    1.474000000000E-004   1.474000000000E-004   1.474000000000E-004   1.474000000000E-004   1.474000000000E-004   1.474000000000E-004   1.474000000000E-004   1.474000000000E-004   1.474000000000E-004   1.474000000000E-004   1.474000000000E-004   1.474000000000E-004   1.474000000000E-004   1.474000000000E-004 
    1.474000000000E-004   1.474000100000E-007   1.474000100000E-007   1.474000100000E-007   1.474000100000E-007   1.474000100000E-007   1.474000100000E-007   1.474000100000E-007   1.474000000000E-004   1.474000000000E-004   1.474000000000E-004   1.474000000000E-004   1.474000000000E-004   1.474000000000E-004 
    1.474000000000E-004   1.474000100000E-007   1.474000100000E-007   1.474000100000E-007   1.474000100000E-007   1.474000100000E-007   1.474000100000E-007   1.474000100000E-007   1.474000000000E-004   1.474000000000E-004   1.474000000000E-004   1.474000000000E-004   1.474000000000E-004   1.474000000000E-004 
    1.474000000000E-004   1.474000100000E-007   1.474000100000E-007   1.474000100000E-007   1.474000100000E-007   1.474000100000E-007   1.474000100000E-007   1.474000100000E-007   1.474000000000E-004   1.474000000000E-004   1.474000000000E-004   1.474000000000E-004   1.474000000000E-004   1.474000000000E-004 
    1.474000000000E-004   1.474000000000E-004   1.474000000000E-004   1.474000000000E-004   1.474000000000E-004   1.474000000000E-004   1.474000000000E-004   1.474000000000E-004   1.474000000000E-004   1.474000000000E-004   1.474000000000E-004   1.474000000000E-004   1.474000000000E-004   1.474000000000E-004 
    1.474000000000E-004   1.474000000000E-004   1.474000000000E-004   1.474000000000E-004   1.474000000000E-004   1.474000000000E-004   1.474000000000E-004   1.474000000000E-004   1.474000000000E-004   1.474000000000E-004   1.474000000000E-004   1.474000000000E-004   1.474000000000E-004   1.474000000000E-004 
    1.474000000000E-004   1.474000000000E-004   1.474000000000E-004   1.474000000000E-004   1.474000000000E-004   1.474000000000E-004   1.474000000000E-004   1.474000000000E-004   1.474000000000E-004   1.474000000000E-004   1.474000000000E-004   1.474000000000E-004   1.474000000000E-004   1.474000000000E-004 
    1.474000000000E-004   1.474000000000E-004   1.474000000000E-004   1.474000000000E-004   1.474000000000E-004   1.474000000000E-004   1.474000000000E-004   1.474000000000E-004   1.474000000000E-004   1.474000000000E-004   1.474000000000E-004   1.474000000000E-004   1.474000000000E-004   1.474000000000E-004 
    1.474000000000E-004   1.474000000000E-004   1.474000000000E-004   1.474000000000E-004   1.474000000000E-004   1.474000000000E-004   1.474000000000E-004   1.474000000000E-004   1.474000000000E-004   1.474000000000E-004   1.474000000000E-004   1.474000000000E-004   1.474000000000E-004   1.474000000000E-004 
    1.474000000000E-004   1.474000000000E-004   1.474000000000E-004   1.474000000000E-004   1.474000000000E-004   1.474000000000E-004   1.474000000000E-004   1.474000000000E-004   1.474000000000E-004   1.474000000000E-004   1.474000000000E-004   1.474000000000E-004   1.474000000000E-004   1.474000000000E-004 
    1.474000000000E-004   1.474000000000E-004   1.474000000000E-004   1.474000000000E-004   1.474000000000E-004   1.474000000000E-004   1.474000000000E-004   1.474000000000E-004   1.474000000000E-004   1.474000000000E-004   1.474000000000E-004   1.474000000000E-004   1.474000000000E-004   1.474000000000E-004 
    1.474000000000E-004   1.474000000000E-004   1.474000000000E-004   1.474000000000E-004   1.474000000000E-004   1.474000000000E-004   1.474000000000E-004   1.474000000000E-004   1.474000000000E-004   1.474000000000E-004   1.474000000000E-004   1.474000000000E-004   1.474000000000E-004   1.474000000000E-004 
    1.474000000000E-004   1.474000000000E-004   1.474000000000E-004   1.474000000000E-004   1.474000000000E-004   1.474000000000E-004   1.474000000000E-004   1.474000000000E-004   1.474000000000E-004   1.474000000000E-004   1.474000000000E-004   1.474000000000E-004   1.474000000000E-004   1.474000000000E-004 
    1.474000000000E-004   1.474000000000E-004   1.474000000000E-004   1.474000000000E-004   1.474000000000E-004   1.474000000000E-004   1.474000000000E-004   1.474000000000E-004   1.474000000000E-004   1.474000000000E-004   1.474000000000E-004   1.474000000000E-004   1.474000000000E-004   1.474000000000E-004 

  K33 INTERNAL FACTOR 1.0 IPRN    12
    CONSTANT   1.474000000000E-004  # K33 1

END GRIDDATA

