# CHD: Time-Variant Specified-Head package file created on 2/19/2019 by ModelMuse version 3.10.0.42.
BEGIN OPTIONS
    AUXILIARY IFACE
    BOUNDNAMES
    PRINT_INPUT
    SAVE_FLOWS
END OPTIONS

BEGIN DIMENSIONS
  MAXBOUND    28
END DIMENSIONS

BEGIN PERIOD      1
     1     1     1  2.500000000000E+002      0 'Imported_Specified_Head__Layer1_1'  # Data Set 6: Layer Row Column Shead IFACE boundname
     1     1     2  2.500000000000E+002      0 'Imported_Specified_Head__Layer1_1'  # Data Set 6: Layer Row Column Shead IFACE boundname
     1     1     3  2.500000000000E+002      0 'Imported_Specified_Head__Layer1_1'  # Data Set 6: Layer Row Column Shead IFACE boundname
     1     1     4  2.500000000000E+002      0 'Imported_Specified_Head__Layer1_1'  # Data Set 6: Layer Row Column Shead IFACE boundname
     1     1     5  2.500000000000E+002      0 'Imported_Specified_Head__Layer1_1'  # Data Set 6: Layer Row Column Shead IFACE boundname
     1     1     6  2.500000000000E+002      0 'Imported_Specified_Head__Layer1_1'  # Data Set 6: Layer Row Column Shead IFACE boundname
     1     1     7  2.500000000000E+002      0 'Imported_Specified_Head__Layer1_1'  # Data Set 6: Layer Row Column Shead IFACE boundname
     1     1     8  2.500000000000E+002      0 'Imported_Specified_Head__Layer1_1'  # Data Set 6: Layer Row Column Shead IFACE boundname
     1     1     9  2.500000000000E+002      0 'Imported_Specified_Head__Layer1_1'  # Data Set 6: Layer Row Column Shead IFACE boundname
     1     1    10  2.500000000000E+002      0 'Imported_Specified_Head__Layer1_1'  # Data Set 6: Layer Row Column Shead IFACE boundname
     1     1    11  2.500000000000E+002      0 'Imported_Specified_Head__Layer1_1'  # Data Set 6: Layer Row Column Shead IFACE boundname
     1     1    12  2.500000000000E+002      0 'Imported_Specified_Head__Layer1_1'  # Data Set 6: Layer Row Column Shead IFACE boundname
     1     1    13  2.500000000000E+002      0 'Imported_Specified_Head__Layer1_1'  # Data Set 6: Layer Row Column Shead IFACE boundname
     1     1    14  2.500000000000E+002      0 'Imported_Specified_Head__Layer1_1'  # Data Set 6: Layer Row Column Shead IFACE boundname
     1    18     1  2.000000000000E+001      0 'Imported_Specified_Head__Layer1_1'  # Data Set 6: Layer Row Column Shead IFACE boundname
     1    18     2  2.250000000000E+001      0 'Imported_Specified_Head__Layer1_1'  # Data Set 6: Layer Row Column Shead IFACE boundname
     1    18     3  2.500000000000E+001      0 'Imported_Specified_Head__Layer1_1'  # Data Set 6: Layer Row Column Shead IFACE boundname
     1    18     4  2.750000000000E+001      0 'Imported_Specified_Head__Layer1_1'  # Data Set 6: Layer Row Column Shead IFACE boundname
     1    18     5  3.000000000000E+001      0 'Imported_Specified_Head__Layer1_1'  # Data Set 6: Layer Row Column Shead IFACE boundname
     1    18     6  3.250000000000E+001      0 'Imported_Specified_Head__Layer1_1'  # Data Set 6: Layer Row Column Shead IFACE boundname
     1    18     7  3.500000000000E+001      0 'Imported_Specified_Head__Layer1_1'  # Data Set 6: Layer Row Column Shead IFACE boundname
     1    18     8  3.750000000000E+001      0 'Imported_Specified_Head__Layer1_1'  # Data Set 6: Layer Row Column Shead IFACE boundname
     1    18     9  4.000000000000E+001      0 'Imported_Specified_Head__Layer1_1'  # Data Set 6: Layer Row Column Shead IFACE boundname
     1    18    10  4.250000000000E+001      0 'Imported_Specified_Head__Layer1_1'  # Data Set 6: Layer Row Column Shead IFACE boundname
     1    18    11  4.500000000000E+001      0 'Imported_Specified_Head__Layer1_1'  # Data Set 6: Layer Row Column Shead IFACE boundname
     1    18    12  4.750000000000E+001      0 'Imported_Specified_Head__Layer1_1'  # Data Set 6: Layer Row Column Shead IFACE boundname
     1    18    13  5.000000000000E+001      0 'Imported_Specified_Head__Layer1_1'  # Data Set 6: Layer Row Column Shead IFACE boundname
     1    18    14  5.250000000000E+001      0 'Imported_Specified_Head__Layer1_1'  # Data Set 6: Layer Row Column Shead IFACE boundname
END PERIOD 

