# Discretization File created on 2/19/2019 by ModelMuse version 3.10.0.42.
# MT3DMS Benchmark Test Problem No. 9
# TRANSPORT IN 2-D FLOW FIELD WITH A LOW-K ZONE
# Upper left corner: (0, 0)
# Lower left corner: (0, -1800)
# Upper right corner: (1400, 0)
# Lower right corner: (1400, -1800)
# Grid angle (in degrees counterclockwise): 0
BEGIN OPTIONS
  LENGTH_UNITS METERS
  XORIGIN  0.000000000000E+000 
  YORIGIN -1.800000000000E+003 
  ANGROT  0.000000000000E+000 
END OPTIONS

BEGIN DIMENSIONS
  NLAY      1
  NROW     18
  NCOL     14
END DIMENSIONS


BEGIN GRIDDATA
  DELR IPRN    12
    CONSTANT   1.000000000000E+002  # DELR

  DELC IPRN    12
    CONSTANT   1.000000000000E+002  # DELC

  TOP LAYERED IPRN    12
    CONSTANT   1.000000000000E+001  # TOP

  BOTM LAYERED IPRN    12
    CONSTANT   0.000000000000E+000  # BOTM, Layer 1

  IDOMAIN LAYERED IPRN     5
    CONSTANT      1 # IDOMAIN 1
END GRIDDATA

