BEGIN TIMING
  TDIS6  ImportedP9.tdis 
END TIMING

BEGIN MODELS
  GWF6  ImportedP9.nam   MODFLOW 
END MODELS

BEGIN EXCHANGES
END EXCHANGES

BEGIN SOLUTIONGROUP     1
  MXITER     1
  IMS6  ImportedP9.ims   MODFLOW  
END SOLUTIONGROUP

