#
# MODFLOW-2000 NAME file for test case P7
#
#
# Output files
#
LIST         7       p7.lst

# Global input files
DIS         10       p7.dis

#Link-MT3DMS input file
LMT6        66       p7.lmt

# Flow process input files
BAS6         1       p7.ba6
BCF6        11       p7.bc6
WEL         12       p7.wel
SIP         19       p7.sip
OC          22       p7.oc
