C
      SUBROUTINE BTN5OPEN(INUNIT)
C *******************************************************************
C OPEN FILES, USING THE METHOD OF MODFLOW-96, 2000 & 2005
c NOTE: THE STYLE OF UNFORMATTED FILES IS SPECIFIED IN THE
C INCLUDE FILE 'FILESPEC.INC'
C *******************************************************************
C Last modified: 02-20-2010
C
      USE MT3DMS_MODULE, ONLY: IOUT,INBTN,INADV,INDSP,INSSM,INRCT,INGCG,
     &                         INTOB,INHSS,INFTL,FPRT,MXTRNOP,
     &                         iUnitTRNOP,NameTRNOP,ICNF,IUCN,IUCN2,
     &                         IOBS,IMAS,ICBM,IFTLFMT,
     &                         INUZT,                               !edm
     &                         INRTR,INLKT,INSFT,INCTS,INTSO,MINVOL !# LINES 3-4 BTN
C
      USE MIN_SAT                                                   !# LINE 12 BTN
      IMPLICIT NONE
      INTEGER       INUNIT,IBTN,IFTL,IFLEN,I,ILIST,LLOC,
     &              ITYP1,ITYP2,N,ISTART,ISTOP,IU,INAM1,INAM2,
     &              ISTART2,ISTOP2
      REAL          R
      LOGICAL       LOP
      CHARACTER*200 LINE,FNAME
      CHARACTER*20  FMTARG,ACCARG,FILACT
      CHARACTER     FILSTAT*7
C
      INCLUDE 'FILESPEC.INC'
C
C--ALLOCATE
      ALLOCATE(IOUT,INBTN,INADV,INDSP,INSSM,INRCT,INGCG,INTOB,INHSS,
     &         INFTL,ICNF,IUCN,IUCN2,IOBS,IMAS,ICBM,IFTLFMT,FPRT,
     &         iUnitTRNOP(MXTRNOP),
     &         INUZT,INCTS,INTSO,INRTR,INLKT,INSFT)                 !edm
C--ALLOCATE SCALAR VARIABLES
      !ALLOCATE(DOMINSAT)                                       !# NEEDED
      ALLOCATE(IATS)                                            !# NEEDED
      !ALLOCATE(DRYON)                                          !# NEEDED
      ALLOCATE(MUTDRY,IC2DRY,MINVOL,IDRYBUD)                    !# NEW
C
C--SET DEFAULT UNIT NUMBERS
      INBTN=1
      INFTL=10
      IOUT =16
      INADV=2
      INDSP=3
      INSSM=4
      INCTS=6                                                       !# Not set in Vivek's Main as expected, setting it here
      INUZT=7                                                       !edm
      INRCT=8
      INGCG=9  
      INTOB=12
      INHSS=13
      INTSO=14                                                      !# Not set in Vivek's Main as expected, setting it here
      INRTR=15                                                      !# LINE 144 MAIN
      ICNF =17
      INLKT=18                                                      !# LINE 145 MAIN
      INSFT=19                                                      !# LINE 145 MAIN
      IUCN =200
      IUCN2=300
      IOBS =400
      IMAS =600
      ICBM =800
C
C--INITIALIZE.
      FPRT=' '
      ILIST=0
      IBTN=0
      IFTL=0      
      DO I=1,MXTRNOP
        iUnitTRNOP(I)=0
      ENDDO
C
C--READ A LINE; IGNORE BLANK LINES AND PRINT COMMENT LINES.
   10 READ(INUNIT,'(A)',END=1000) LINE
      IF(LINE.EQ.' ') GOTO 10
      IF(LINE(1:1).EQ.'#') THEN
        IF(ILIST.NE.0) WRITE(IOUT,'(A)') LINE
        GOTO 10
      ENDIF
C
C--DECODE THE FILE TYPE AND UNIT NUMBER.
      LLOC=1
      CALL URWORD(LINE,LLOC,ITYP1,ITYP2,1,N,R,IOUT,INUNIT)
      CALL URWORD(LINE,LLOC,ISTART,ISTOP,2,IU,R,IOUT,INUNIT)
C
C--DECODE THE FILE NAME.
      CALL URWORD(LINE,LLOC,INAM1,INAM2,0,N,R,IOUT,INUNIT)
      IFLEN=INAM2-INAM1+1
      FNAME(1:IFLEN)=LINE(INAM1:INAM2)
C
C--CHECK FOR A VALID FILE TYPE.
      FMTARG='FORMATTED'
      ACCARG='SEQUENTIAL'
      FILSTAT='UNKNOWN'
      FILACT=ACTION(2)
C
C--FIRST ENTRY MUST BE FILE-TYPE "LIST".
      IF(ILIST.EQ.0) THEN
        IF(LINE(ITYP1:ITYP2).NE.'LIST') THEN
          WRITE(*,11)
   11     FORMAT(1X,'FIRST ENTRY IN NAME FILE MUST BE "LIST".')
          CALL USTOP(' ')
        ENDIF
        IF(IU.EQ.0) THEN
          IU=IOUT
        ELSEIF(IU.GT.0) THEN
          IOUT=IU
        ENDIF  
C
C--CHECK FOR "BTN" FILE TYPE.
      ELSEIF(LINE(ITYP1:ITYP2).EQ.'BTN') THEN
        IBTN=1 
        FILSTAT='OLD    '
        FILACT=ACTION(1)
        IF(IU.EQ.0) THEN
          IU=INBTN               
        ELSEIF(IU.GT.0) THEN
          INBTN=IU
        ENDIF         
C
        MUTDRY=0                                               !# LINE 83 BTN
        IC2DRY=0                                               !# LINE 84 BTN
        MINVOL=0                                               !# LINE 85 BTN
        IDRYBUD=0                                              !# LINE 86 BTN
        CALL URWORD(LINE,LLOC,ISTART,ISTOP,1,N,R,IOUT,INUNIT)  !# LINE 87 BTN
        IF(LINE(ISTART:ISTOP).EQ.'MUTDRY') MUTDRY=1            !# LINE 88 BTN
        IF(LINE(ISTART:ISTOP).EQ.'C2DRY') IC2DRY=1             !# LINE 89 BTN
        IF(LINE(ISTART:ISTOP).EQ.'MINVOL') MINVOL=1            !# LINE 90 BTN
        IF(LINE(ISTART:ISTOP).EQ.'DRYBUD') IDRYBUD=1           !# LINE 91 BTN
        CALL URWORD(LINE,LLOC,ISTART,ISTOP,1,N,R,IOUT,INUNIT)  !# LINE 92 BTN
        IF(LINE(ISTART:ISTOP).EQ.'MUTDRY') MUTDRY=1            !# LINE 93 BTN
        IF(LINE(ISTART:ISTOP).EQ.'C2DRY') IC2DRY=1             !# LINE 94 BTN
        IF(LINE(ISTART:ISTOP).EQ.'MINVOL') MINVOL=1            !# LINE 95 BTN
        IF(LINE(ISTART:ISTOP).EQ.'DRYBUD') IDRYBUD=1           !# LINE 96 BTN
        CALL URWORD(LINE,LLOC,ISTART,ISTOP,1,N,R,IOUT,INUNIT)  !# LINE 97 BTN
        IF(LINE(ISTART:ISTOP).EQ.'MUTDRY') MUTDRY=1            !# LINE 98 BTN
        IF(LINE(ISTART:ISTOP).EQ.'C2DRY') IC2DRY=1             !# LINE 99 BTN
        IF(LINE(ISTART:ISTOP).EQ.'MINVOL') MINVOL=1            !# LINE 100 BTN
        IF(LINE(ISTART:ISTOP).EQ.'DRYBUD') IDRYBUD=1           !# LINE 101 BTN
        CALL URWORD(LINE,LLOC,ISTART,ISTOP,1,N,R,IOUT,INUNIT)  !# LINE 102 BTN
        IF(LINE(ISTART:ISTOP).EQ.'MUTDRY') MUTDRY=1            !# LINE 103 BTN
        IF(LINE(ISTART:ISTOP).EQ.'C2DRY') IC2DRY=1             !# LINE 104 BTN
        IF(LINE(ISTART:ISTOP).EQ.'MINVOL') MINVOL=1            !# LINE 105 BTN
        IF(LINE(ISTART:ISTOP).EQ.'DRYBUD') IDRYBUD=1           !# LINE 106 BTN
C
C--CHECK FOR "FTL" FILE TYPE.
      ELSEIF(LINE(ITYP1:ITYP2).EQ.'FTL') THEN
C
C--DECODE OPTIONAL FORMAT AND OUTPUT KEYWORDS
        CALL URWORD(LINE,LLOC,ISTART,ISTOP,1,N,R,IOUT,INUNIT)
        CALL URWORD(LINE,LLOC,ISTART2,ISTOP2,1,N,R,IOUT,INUNIT)
        IFTL=1
        IFTLFMT=0
        FILSTAT='OLD    '
        FILACT=ACTION(1)
        FMTARG=FORM
        ACCARG=ACCESS
        IF(IU.EQ.0) THEN
          IU=INFTL
        ELSE
          INFTL=IU
        ENDIF
        IF(LINE(ISTART:ISTOP)  .EQ.'FREE' .OR.
     &   LINE(ISTART2:ISTOP2).EQ.'FREE') THEN
          IFTLFMT=1
          FMTARG='FORMATTED'
          ACCARG='SEQUENTIAL'
        ENDIF
        IF(LINE(ISTART:ISTOP)  .EQ.'PRINT' .OR.
     &     LINE(ISTART2:ISTOP2).EQ.'PRINT') THEN
          FPRT='Y'
        ENDIF
C               
C--CHECK FOR "UNFORMATTED" FILE TYPE.
      ELSEIF(LINE(ITYP1:ITYP2).EQ.'DATA(BINARY)') THEN
        FMTARG=FORM
        ACCARG=ACCESS
C
C--CHECK FOR "FORMATTED FILE TYPE.
      ELSEIF(LINE(ITYP1:ITYP2).EQ.'DATA') THEN
        FMTARG='FORMATTED'
        ACCARG='SEQUENTIAL'                        
C
C--CHECK FOR MAJOR OPTIONS.
      ELSE                       
        DO I=1,MXTRNOP
          IF(LINE(ITYP1:ITYP2).EQ.NameTRNOP(I)) THEN
            IF(IU.EQ.0) THEN          
              if(NameTRNOP(i).EQ.'ADV') THEN
                IU=INADV
              elseif(NameTRNOP(i).EQ.'DSP') THEN
                IU=INDSP
              elseif(NameTRNOP(i).EQ.'SSM') THEN
                IU=INSSM
              elseif(NameTRNOP(i).EQ.'CTS') THEN              !# New 7-11-13
                IU=INCTS                                      !# New 7-11-13
              elseif(NameTRNOP(i).EQ.'TSO') THEN              !# New 7-11-13
                IU=INTSO                                      !# New 7-11-13
              elseif(NameTRNOP(i).EQ.'UZT') THEN                    !edm
                IU=INUZT                                            !edm
              elseif(NameTRNOP(i).EQ.'RCT') THEN
                IU=INRCT
              elseif(NameTRNOP(i).EQ.'GCG') THEN
                IU=INGCG
              elseif(NameTRNOP(i).EQ.'TOB') THEN
                IU=INTOB
              elseif(NameTRNOP(i).EQ.'HSS') THEN
                IU=INHSS
              elseif(NameTRNOP(i).EQ.'RTR') THEN              !# LINE 171 BTN
                IU=INRTR                                      !# LINE 172 BTN
              elseif(NameTRNOP(i).EQ.'LKT') THEN              !# LINE 173 BTN
                IU=INLKT                                      !# LINE 174 BTN
              elseif(NameTRNOP(i).EQ.'SFT') THEN              !# LINE 175 BTN
                IU=INSFT                                      !# LINE 176 BTN
              else
                WRITE(*,20) LINE(ITYP1:ITYP2)
   20           FORMAT(1X,'UNDEFINED UNIT # FOR FILE TYPE: ',A)  
                CALL USTOP(' ')  
              endif  
            ENDIF  
            iUnitTRNOP(I)=IU
            FILSTAT='OLD    '
            FILACT=ACTION(1)
            GO TO 30
          ENDIF
        ENDDO     
        WRITE(*,21) LINE(ITYP1:ITYP2)
   21   FORMAT(1X,'ILLEGAL FILE TYPE IN NAME FILE: ',A)
        CALL USTOP(' ')
   30   CONTINUE
      ENDIF      
C
C--WRITE THE FILE NAME IF THE FILE IS NOT THE
C--LISTING FILE.  THEN OPEN THE FILE.
      INQUIRE(UNIT=IU,OPENED=LOP)
      IF(LOP) CLOSE(UNIT=IU)
      IF(ILIST.NE.0) WRITE(IOUT,36) LINE(INAM1:INAM2),
     &     LINE(ITYP1:ITYP2),IU
   36 FORMAT(1X,/1X,'OPENING ',A,/
     &     1X,'FILE TYPE:',A,'   UNIT',I4)
      OPEN(UNIT=IU,FILE=FNAME(1:IFLEN),STATUS=FILSTAT,
     &     FORM=FMTARG,ACCESS=ACCARG,ACTION=FILACT)
C
C--IF THE OPENED FILE IS THE LISTING FILE, WRITE ITS NAME.
C--GO BACK AND READ NEXT RECORD.
      IF(ILIST.EQ.0) WRITE(IOUT,37) LINE(INAM1:INAM2),IU
   37 FORMAT(1X,'LISTING FILE: ',A,/25X,'UNIT',I4)
      ILIST=1
      GOTO 10
C
C--END OF NAME FILE.  RETURN PROVIDED THAT LISTING FILE,
C--FTL and BTN FILES HAVE BEEN OPENED.
 1000 IF(ILIST.EQ.0) THEN
        WRITE(*,1001)
        CALL USTOP(' ')
      ELSEIF(IFTL.EQ.0) THEN
        WRITE(IOUT,1002)
        CALL USTOP(' ')
      ELSEIF(IBTN.EQ.0) THEN
        WRITE(IOUT,1003)
        CALL USTOP(' ')
      ENDIF
 1001 FORMAT(1X,'NAME FILE IS EMPTY.')
 1002 FORMAT(1X,'Flow-Transport Link FILE HAS NOT BEEN OPENED.')
 1003 FORMAT(1X,'BTN PACKAGE FILE HAS NOT BEEN OPENED.')
c
      RETURN
      END
C
C
      SUBROUTINE BTN5AR(IN)
C **********************************************************************
C THIS SUBROUTINE READS AND PREPARES INPUT DATA RELEVANT TO THE ENTIRE
C SIMULATION.
C***********************************************************************
C last modified: 02-15-2005
C
      USE UZTVARS, ONLY: PRSITYSAV
	USE MT3DMS_MODULE
      USE MIN_SAT                                              !# LINE 241 BTN
      USE RCTMOD, ONLY: IREACTION                              !# LINE 439 BTN
      IMPLICIT  NONE
      INTEGER   IN,N,J,I,K,IP1,IERR,INDEX,ISTART,ISTOP,
     &          LLOC,LLOCSAVE
      REAL      ZZ,TMP,CDRY,R
      LOGICAL   UNIFOR
      CHARACTER ANAME*24,FLNAME*50,FINDEX*30,HEADNG*80,Line*80
      DIMENSION HEADNG(2)
C
C--ALLOCATE SCALAR VARIABLES
      ALLOCATE(NCOL)
      ALLOCATE(NROW)
      ALLOCATE(NLAY)
      ALLOCATE(NPER)
      ALLOCATE(NCOMP)
      ALLOCATE(MCOMP)
      ALLOCATE(NODES)
      ALLOCATE(NSTP)
      ALLOCATE(MXSTRN)
      ALLOCATE(iSSTrans)
      ALLOCATE(MXPART)
      ALLOCATE(DT0)
      ALLOCATE(TTSMULT)
      ALLOCATE(TTSMAX)
      ALLOCATE(TUNIT)
      ALLOCATE(LUNIT)
      ALLOCATE(MUNIT)
	ALLOCATE(ISOTHM)
	ALLOCATE(HT1)
	ALLOCATE(HT2)
	ALLOCATE(DTRANS)
	ALLOCATE(DELT)
	ALLOCATE(TIME1)
	ALLOCATE(TIME2)
      ALLOCATE(CINACT)
      ALLOCATE(THKMIN)
      ALLOCATE(RFMIN)
      ALLOCATE(IMPSOL)
      ALLOCATE(DTRACK)
      ALLOCATE(DTRACK2)
      ALLOCATE(DTSSM)
      ALLOCATE(DTDISP)
      ALLOCATE(DTRCT)
      ALLOCATE(MIXELM)
      ALLOCATE(ISPD)
      ALLOCATE(PERCEL)
      ALLOCATE(IFMTCN)
      ALLOCATE(IFMTNP)
      ALLOCATE(IFMTRF)
      ALLOCATE(IFMTDP)
      ALLOCATE(NPS)
      ALLOCATE(NPRS)
      ALLOCATE(NPRMAS)
      ALLOCATE(SAVUCN)
      ALLOCATE(SAVCBM)
      ALLOCATE(CHKMAS)
      ALLOCATE(PRTOUT)
      ALLOCATE(UPDLHS)
      ALLOCATE(NOBS)
      ALLOCATE(NPROBS)
      ALLOCATE(HORIGN)
      ALLOCATE(XMAX)
      ALLOCATE(YMAX)
      ALLOCATE(ZMAX)
      ALLOCATE(UNIDX)
      ALLOCATE(UNIDY)
      ALLOCATE(UNIDZ)
C
C--INITIALIZE VARIABLES THAT DEPEND ON OTHER PACKAGES
	ISOTHM=0
      IF(FPRT.EQ.' ') FPRT='N'
C
C--PRINT PACKAGE NAME AND VERSION NUMBER
      WRITE(IOUT,7) IN
   7  FORMAT(1X,'BTN5 -- BASIC TRANSPORT PACKAGE,',
     & ' VERSION 5, FEBRUARY 2010, INPUT READ FROM UNIT',I3)
C
C--READ AND PRINT HEADING
      READ(IN,'(A80)') (HEADNG(I),I=1,2)
      WRITE(IOUT,10)
      WRITE(IOUT,15) (HEADNG(I),I=1,2)
      WRITE(IOUT,10)
   10 FORMAT(1X,' ----- ')
   15 FORMAT(1X,'| M T | ',A80/1X,'| 3 D | ',A80)
C
C--IDENTIFY PRESENCE OF KEYWORDS, CODE DOES NOT REQUIRE A SPECIFIC ORDER,
C  KEYWORDS MAY BE ENTERED IN ANY ORDER.
      CALL URDCOM(IN,IOUT,LINE)
      LLOC=1
      CALL URWORD(LINE,LLOC,ISTART,ISTOP,1,I,R,IOUT,IN)
      IF(LINE(ISTART:ISTOP).EQ.'MST') THEN
        DOMINSAT=.TRUE.
        WRITE(IOUT,*)
        WRITE(IOUT,'(A)')'*** MST OPTION HAS BEEN ACTIVATED BY ',
     &                   'KEYWORD ON THE FIRST LINE OF THE BTN PACKAGE'
        WRITE(IOUT,*)
        LLOCSAVE=LLOC
      ELSEIF(LINE(ISTART:ISTOP).EQ.'DRY') THEN
        DRYON=.TRUE.
        WRITE(IOUT,*)
        WRITE(IOUT,'(A)')'*** DRY OPTION HAS BEEN ACTIVATED BY ',
     &                   'KEYWORD ON THE FIRST LINE OF THE BTN PACKAGE'
        WRITE(IOUT,*)
        LLOCSAVE=LLOC
      ELSE
        WRITE(IOUT,*)
        WRITE(IOUT,'(A)')'NEITHER MST OR DRY OPTIONS SET'
        WRITE(IOUT,*)
        BACKSPACE(IN)
        GOTO 16
      ENDIF
C
C--CHECK FOR SECOND KEYWORD
      IF(DOMINSAT.OR.DRYON) THEN
        LLOC=LLOCSAVE          
        CALL URWORD(LINE,LLOC,ISTART,ISTOP,1,I,R,IOUT,IN)
        IF(LINE(ISTART:ISTOP).EQ.'MST') THEN
          DOMINSAT=.TRUE.
          WRITE(IOUT,*)
          WRITE(IOUT,'(A)')'*** MST OPTION HAS BEEN ACTIVATED BY ',
     &                   'KEYWORD ON THE FIRST LINE OF THE BTN PACKAGE'
          WRITE(IOUT,*)
        ELSEIF(LINE(ISTART:ISTOP).EQ.'DRY') THEN
          DRYON=.TRUE.
          WRITE(IOUT,*)
        WRITE(IOUT,'(A)')'*** DRY OPTION HAS BEEN ACTIVATED BY ',
     &                   'KEYWORD ON THE FIRST LINE OF THE BTN PACKAGE'
          WRITE(IOUT,*)
        ELSE
          GOTO 16
        ENDIF
      ENDIF
C
C--IF MST IS TRUE AND DRYON IS FALSE THEN IDRYBUD MUST BE 1; 
C  THIS TERM MUST BE TREATED AS SINK
   16 IF(DOMINSAT.EQ..FALSE.) DRYON=.FALSE.
      IF(DOMINSAT.EQ..TRUE. .AND. DRYON.EQ..FALSE.) THEN
        IDRYBUD=1
      ENDIF
      IF(DOMINSAT.EQ..FALSE.) IDRYBUD=0
C
C--READ AND PRINT NO. OF LAYERS, ROWS, COLUMNS, AND STRESS PERIODS,
C--COMPONENTS
      IATS=0                                                   !# LINE 261 BTN
      READ(IN,'(7I10)',ERR=25,IOSTAT=IERR)                     !# LINE 262 BTN
     &                    NLAY,NROW,NCOL,NPER,NCOMP,MCOMP,IATS !# LINE 263 BTN
      IF(NCOMP.LT.1) NCOMP=1
      IF(MCOMP.LT.1) MCOMP=1
   25 IF(IERR.NE.0) THEN
        BACKSPACE(IN)
        READ(IN,'(4I10)') NLAY,NROW,NCOL,NPER
        NCOMP=1
        MCOMP=1
      ENDIF
      WRITE(IOUT,700) NLAY,NROW,NCOL,NPER,NCOMP,MCOMP
  700 FORMAT(1X,'THE TRANSPORT MODEL CONSISTS OF ',I5,' LAYER(S)',I5,
     & ' ROW(S)',I5,' COLUMN(S)',
     & /1X,'NUMBER OF STRESS PERIOD(S) FOR TRANSPORT SIMULATION =',I5,
     & /1X,'NUMBER OF ALL COMPONENTS INCLUDED IN SIMULATION =',I5,
     & /1X,'NUMBER OF MOBILE COMPONENTS INCLUDED IN SIMULATION =',I5)
C
C-----WRITE MESSAGE IF ATS OPTION IS SELECTED                     !# LINE 285 BTN
      IF(IATS.GE.1.AND.iUnitTRNOP(14).GT.0) THEN                  !# LINE 286 BTN
        WRITE(IOUT,1001) iUnitTRNOP(14)                           !# LINE 287 BTN
        READ(iUnitTRNOP(14),*)                                    !# LINE 288 BTN
      ENDIF                                                       !# LINE 289 BTN
      IF(IATS.GE.1.AND.iUnitTRNOP(14).LE.0) THEN                  !# LINE 290 BTN
        IATS=0                                                    !# LINE 291 BTN
        WRITE(IOUT,1002) iUnitTRNOP(14)                           !# LINE 292 BTN
      ENDIF                                                       !# LINE 293 BTN
 1001 FORMAT(1X,'AUTO-TIME-STEPPING(IATS) INFORMATION READ FROM', !# LINE 294 BTN
     & ' EXTERNAL FILE ON UNIT ',I5)                              !# LINE 295 BTN
 1002 FORMAT(1X,'***AUTO-TIME-STEPPING(IATS) FLAG DEACTIVATED***',!# LINE 296 BTN
     & ' ENTER A VALID UNIT NUMBER IN NAM FILE',I5)               !# LINE 297 BTN
C
C--READ AND PRINT UNITS FOR TIME, LENGTH AND MASS TO BE USED
      READ(IN,'(3A4)') TUNIT,LUNIT,MUNIT
      WRITE(IOUT,750) TUNIT,LUNIT,MUNIT
  750 FORMAT(1X,'UNIT FOR TIME IS ',A4,';',2X,'UNIT FOR LENGTH IS ',
     & A4,';',2X,'UNIT FOR MASS IS ',A4)
C
C--IGNORE TRANSPORT OPTIONS INPUT WHICH ARE DEFINED THROUGH NameFile     
      READ(IN,'(A)',ERR=755) Line
  755 WRITE(IOUT,760)
      DO I=1,MXTRNOP
        IF(iUnitTRNOP(I).GT.0) 
     &   WRITE(IOUT,770) NameTRNOP(I),iUnitTRNOP(I)
      ENDDO     
      WRITE(IOUT,1024)     
  760 FORMAT(1X,'OPTIONAL PACKAGES INCLUDED IN CURRENT SIMULATION:')
  770 FORMAT(1X,' o ',A, '  ON UNIT',I3)
 1024 FORMAT(1X)
C
C--WRITE STATUS OF MST AND DRY FLAGS                              !# LINE 313 BTN
      IF(DOMINSAT)                                                !# LINE 314 BTN
     1  WRITE(IOUT,*) 'MST OPTION - TO LET MASS ENTER DRY CELLS'  !# LINE 315 BTN
      IF(DRYON)                                                   !# LINE 316 BTN
     1  WRITE(IOUT,*) 'DRY OPTION - TO LET MASS ENTER FROM DRY CELLS' !# LINE 317 BTN
C
C--GET TOTAL NUMBER OF MODEL NODES
      NODES=NCOL*NROW*NLAY
C
C--ALLOCATE AND INITIALIZE
      ALLOCATE(LAYCON(NLAY))
      ALLOCATE(ICBUND(NCOL,NROW,NLAY,NCOMP))
      ALLOCATE(DELR(NCOL))
      ALLOCATE(DELC(NROW))
      ALLOCATE(DZ(NCOL,NROW,NLAY))
      ALLOCATE(PRSITY(NCOL,NROW,NLAY))
      ALLOCATE(HTOP(NCOL,NROW))
      ALLOCATE(XBC(NCOL))
      ALLOCATE(YBC(NROW))
      ALLOCATE(ZBC(NCOL,NROW,NLAY))
      ALLOCATE(CNEW(NCOL,NROW,NLAY,NCOMP))
      ALLOCATE(COLD(NCOL,NROW,NLAY,NCOMP))
      ALLOCATE(QX(NCOL,NROW,NLAY))
      ALLOCATE(QY(NCOL,NROW,NLAY))
      ALLOCATE(QZ(NCOL,NROW,NLAY))
      ALLOCATE(QSTO(NCOL,NROW,NLAY))
      ALLOCATE(DH(NCOL,NROW,NLAY))
      ALLOCATE(CWGT(NCOL,NROW,NLAY,NCOMP))
      ALLOCATE(CADV(NCOL,NROW,NLAY,NCOMP))
      ALLOCATE(RETA(NCOL,NROW,NLAY,NCOMP))
      ALLOCATE(SRCONC(NCOL,NROW,NLAY,NCOMP))
      ALLOCATE(BUFF(NCOL,NROW,NLAY))
      ALLOCATE(TSLNGH(MXSTP))
      IF (iUnitTRNOP(4).GT.0) THEN
        ALLOCATE(RHOB(NCOL,NROW,NLAY))
        ALLOCATE(PRSITY2(NCOL,NROW,NLAY))
        ALLOCATE(RETA2(NCOL,NROW,NLAY,NCOMP))
      ELSE
        ALLOCATE(RHOB(1,1,1))
        ALLOCATE(PRSITY2(1,1,1))
        ALLOCATE(RETA2(1,1,1,1))
      ENDIF
      ALLOCATE(NPINS(NCOMP))
      ALLOCATE(NRC(NCOMP))
      ALLOCATE(TMASIN(NCOMP))
      ALLOCATE(TMASOT(NCOMP))
      ALLOCATE(ERROR(NCOMP))
      ALLOCATE(ERROR2(NCOMP))
      ALLOCATE(TMASIO(122,2,NCOMP))
      ALLOCATE(RMASIO(122,2,NCOMP))
      ALLOCATE(TMASS(4,3,NCOMP))
      ALLOCATE(IABSMIN)
      LAYCON=0
      ICBUND=0
      DELR=0.
      DELC=0.
      DZ=0.
      PRSITY=0.
      HTOP=0.
      XBC=0.
      YBC=0.
      ZBC=0.
      CNEW=0.
      COLD=0.
      QX=0.
      QY=0.
      QZ=0.
      QSTO=0.
      DH=0.
      CWGT=0.
      CADV=0.
      RETA=0.
      SRCONC=0.
      BUFF=0.
      TSLNGH=0.
      RHOB=0.
      PRSITY2=0.
      RETA2=0.
      NPINS=0
      NRC=0
      TMASIN=0.
      TMASOT=0.
      ERROR=0.
      ERROR2=0.
      TMASIO=0.
      RMASIO=0.
      TMASS=0.
C
C--READ AND ECHO LAYER TYPE CODES
      READ(IN,'(40I2)') (LAYCON(K),K=1,NLAY)
      WRITE(IOUT,1000)
 1000 FORMAT(1X,'LAYER NUMBER  AQUIFER TYPE',
     &      /1X,'------------  ------------')
      DO K=1,NLAY
        WRITE(IOUT,1010) K,LAYCON(K)
      ENDDO
 1010 FORMAT(1X,4X,I3,10X,I3)
C
C--CALL RARRAY TO READ IN CELL WIDTH ALONG ROWS
      ANAME='WIDTH ALONG ROWS (DELR)'
      CALL RARRAY(DELR(1:NCOL),ANAME,1,NCOL,0,IN,IOUT)
C
C--CHECK WHETHER ELEMENTS OF DELR ARE UNIFROM
      UNIDX=UNIFOR(DELR(1:NCOL),NCOL,1,1)
C
C--CALL RARRAY TO READ IN CELL WIDTH ALONG COLUMNS
      ANAME='WIDTH ALONG COLS (DELC)'
      CALL RARRAY(DELC(1:NROW),ANAME,1,NROW,0,IN,IOUT)
C
C--CHECK WHETHER ELEMENTS OF DELC ARE UNIFROM
      UNIDY=UNIFOR(DELC(1:NROW),NROW,1,1)
C
C--CALL RARRAY TO READ IN TOP ELEVATION OF 1ST LAYER
      ANAME='TOP ELEV. OF 1ST LAYER'
      CALL RARRAY(HTOP,ANAME,NROW,NCOL,0,IN,IOUT)
C
C--CALL RARRAY TO READ IN THICKNESS ONE LAYER AT A TIME
      ANAME='CELL THICKNESS (DZ)'
      DO K=1,NLAY
        CALL RARRAY(DZ(1:NCOL,1:NROW,K),ANAME,NROW,NCOL,K,IN,IOUT)
      ENDDO
C
C--CHECK WHETHER VERTICAL DISCRTIZATION IS HORIZONTAL
      UNIDZ=UNIFOR(HTOP,NCOL,NROW,1)
     & .AND.UNIFOR(DZ,NCOL,NROW,NLAY)
C
C--CALL RARRAY TO READ IN POROSITY ONE LAYER AT A TIME
      ANAME='POROSITY'
      DO K=1,NLAY
        CALL RARRAY(PRSITY(1:NCOL,1:NROW,K),ANAME,NROW,NCOL,K,IN,IOUT)
      ENDDO
C                                                                   !edm
      IF(iUnitTRNOP(7).GT.0) THEN                                   !edm
C                                                                   !edm
C--IMMEDIATELY POINT PRSITYSAV TO PRSITY SO THAT THE ORIGINAL       !edm
C--BTN PRSITY IS RETAINED FOR THE REMAINDER OF CODE EXECUTION       !edm
        PRSITYSAV=>PRSITY                                           !edm
      ENDIF                                                         !edm
C
C--CALL IARRAY TO READ IN CONCENTRATION BOUNDARY ARRAY
      ANAME='CONCN. BOUNDARY ARRAY'
      DO K=1,NLAY
        CALL IARRAY(ICBUND(1:NCOL,1:NROW,K,1),ANAME,NROW,NCOL,K,IN,IOUT)
      ENDDO
C
C--CALL RARRAY TO READ IN INITIAL CONCENTRATION
      ANAME='INITIAL CONC.: COMP. NO.'
      DO INDEX=1,NCOMP
        WRITE(ANAME(22:24),'(I3.2)') INDEX
        DO K=1,NLAY
          CALL RARRAY(COLD(1:NCOL,1:NROW,K,INDEX),ANAME,NROW,NCOL,
     &                     K,IN,IOUT)
        ENDDO
      ENDDO
C
C--ALLOCATE SPACE FOR REACTION VARIABLES                       !# LINE 521 BTN
!      IF(IREACTION.EQ.2) THEN                                 !# LINE 522 BTN
!        ALLOCATE(INIC(NCOL,NROW,NLAY,NCOMP))                  !# LINE 523 BTN
!        INIC=COLD                                             !# LINE 524 BTN
!      ENDIF                                                   !# LINE 525 BTN
C                                                              !# LINE 526 BTN
C--READ AND ECHO CINACT,THKMIN
      READ(IN,'(2F10.0)',ERR=50,IOSTAT=IERR) CINACT,THKMIN
CVSB      IF(THKMIN.LT.0) THKMIN=0.                            
C.....READ NEGATIVE THKMIN AS ABSOLUTE VALUE OF MINTHK         !# LINE 530 BTN
      IABSMIN=0                                                !# LINE 531 BTN
      IF(THKMIN.LT.0) THEN                                     !# LINE 532 BTN
        IABSMIN=1                                              !# LINE 533 BTN
        THKMIN=ABS(THKMIN)                                     !# LINE 534 BTN
      ENDIF                                                    !# LINE 535 BTN
C
   50 IF(IERR.NE.0) THEN
        BACKSPACE (IN)
        READ(IN,'(F10.0)') CINACT
        THKMIN=0.
      ENDIF
C                                                              !# LINE 541 BTN
      IF(IABSMIN.EQ.1) THEN                                    !# LINE 542 BTN
        WRITE(IOUT,1021) CINACT,THKMIN                         !# LINE 543 BTN
      ELSE                                                     !# LINE 544 BTN
        WRITE(IOUT,1020) CINACT,THKMIN
      ENDIF                                                    !# LINE 546 BTN
      IF(IABSMIN.EQ.0) THEN                                    !# LINE 548 BTN
        IF(THKMIN.GT.0.05) THEN
          WRITE(IOUT,1022)
          THKMIN=0.01
        ENDIF
      ENDIF                                                    !# LINE 552 BTN
 1020 FORMAT(/1X,'VALUE INDICATING INACTIVE CONCENTRATION CELLS = ',
     & G15.7/1X,'MINIMUM SATURATED THICKNESS [THKMIN] ',
     & 'ALLOWED =',F8.4,' OF TOTAL CELL THICKNESS')
 1021 FORMAT(/1X,'VALUE INDICATING INACTIVE CONCENTRATION CELLS = ', !# LINE 557
     & G15.7/1X,'ABSOLUTE MINIMUM SATURATED THICKNESS [THKMIN] ',    !# LINE 558
     & 'ALLOWED =',F8.4)                                             !# LINE 559
 1022 FORMAT(1X,'WARNING: [THKMIN] MUST BE < OR = 0.05;',
     & /10X,'RESET TO DEFAULT OF 0.01 OR 1% OF TOTAL CELL THICKNESS')
C
C--READ AND ECHO OUTPUT CONTROL OPTIONS
      READ(IN,'(4I10,L10)') IFMTCN,IFMTNP,IFMTRF,IFMTDP,SAVUCN
      SAVCBM=.FALSE.
      WRITE(IOUT,1025)
C
      IF(IFMTCN.NE.0) WRITE(IOUT,1030) IFMTCN
      IF(IFMTCN.EQ.0) WRITE(IOUT,1032)
 1025 FORMAT(//1X,'OUTPUT CONTROL OPTIONS'/1X,22('-'))
 1030 FORMAT(/1X,'PRINT CELL CONCENTRATION USING FORMAT CODE:',I5)
 1032 FORMAT(/1X,'DO NOT PRINT CELL CONCENTRATION')
C
      IF(IFMTNP.NE.0) WRITE(IOUT,1034) IFMTNP
      IF(IFMTNP.EQ.0) WRITE(IOUT,1036)
 1034 FORMAT(1X,'PRINT PARTICLE NUMBER IN EACH CELL',
     &          ' USING FORMAT CODE:',I5)
 1036 FORMAT(1X,'DO NOT PRINT PARTICLE NUMBER IN EACH CELL')
C
      IF(IFMTNP.NE.0) WRITE(IOUT,1038) IFMTRF
      IF(IFMTNP.EQ.0) WRITE(IOUT,1040)
 1038 FORMAT(1X,'PRINT RETARDATION FACTOR USING FORMAT CODE:',I5)
 1040 FORMAT(1X,'DO NOT PRINT RETARDATION FACTOR')
C
      IF(IFMTDP.NE.0) WRITE(IOUT,1042) IFMTDP
      IF(IFMTDP.EQ.0) WRITE(IOUT,1044)
 1042 FORMAT(1X,'PRINT DISPERSION COEFFICIENT USING FORMAT CODE:',I5)
 1044 FORMAT(1X,'DO NOT PRINT DISPERSION COEFFICIENT')
C
      IF(SAVUCN) THEN
        WRITE(IOUT,1046) IUCN+1
        FLNAME='MT3Dnnn.UCN'
        DO INDEX=1,NCOMP
          WRITE(FLNAME(5:7),'(I3.3)') INDEX
          CALL OPENFL(-(IUCN+INDEX),0,FLNAME,1,FINDEX)
        ENDDO
        IF(ISOTHM.GT.0) THEN
          WRITE(IOUT,2046) IUCN2+1
          FLNAME='MT3DnnnS.UCN'
          DO INDEX=1,NCOMP
            WRITE(FLNAME(5:7),'(I3.3)') INDEX
            CALL OPENFL(-(IUCN2+INDEX),0,FLNAME,1,FINDEX)
          ENDDO
        ENDIF
      ELSE
        WRITE(IOUT,1047)
      ENDIF
 1046 FORMAT(1X,'SAVE DISSOLVED PHASE CONCENTRATIONS ',
     & 'IN UNFORMATTED FILES [MT3Dnnn.UCN]'/1X,' FOR EACH SPECIES ',
     & 'ON UNITS ',I3,' AND ABOVE')
 2046 FORMAT(1X,'SAVE SORBED/IMMOBILE PHASE CONCENTRATIONS ',
     & 'IN UNFORMATTED FILES [MT3DnnnS.UCN]'/1X,' FOR EACH SPECIES ',
     & 'ON UNITS ',I3,' AND ABOVE, ',
     & 'IF SORPTION/MASS TRANSFER SIMULATED')
 1047 FORMAT(1X,'DO NOT SAVE CONCENTRATIONS IN UNFORMATTED FILES')
C
C--READ NUMBER OF TIMES AT WHICH SIMULATION RESULTS SHOULD BE SAVED
C--IN STANDARD OUTPUT FILE OR RECORDED IN UNFORMATTED FILE
      READ(IN,'(I10)') NPRS
      IF(NPRS.LT.0) THEN
        WRITE(IOUT,1050) -NPRS
      ELSE
        WRITE(IOUT,1052) NPRS
      ENDIF
C--ALLOCATE TIMPRS
      IF(NPRS.GT.0) THEN
        ALLOCATE(TIMPRS(NPRS))
      ELSE
        ALLOCATE(TIMPRS(1))
      ENDIF
      IF(NPRS.GT.0) THEN
        READ(IN,'(8F10.0)') (TIMPRS(I),I=1,NPRS)
C
C--MAKE SURE ELEMENTS IN ARRAY [TIMPRS] ARE MONOTONICALLY INCREASING
        DO I=1,NPRS-1
          DO IP1=I+1,NPRS
            IF(TIMPRS(I).GT.TIMPRS(IP1)) THEN
              TMP=TIMPRS(I)
              TIMPRS(I)=TIMPRS(IP1)
              TIMPRS(IP1)=TMP
            ENDIF
          ENDDO
        ENDDO
        WRITE(IOUT,1055) (TIMPRS(I),I=1,NPRS)
      ENDIF
 1050 FORMAT(/1X,'SIMULATION RESULTS ARE SAVED EVERY ',I3,
     & ' TRANSPORT STEP(S)')
 1052 FORMAT(/1X,'NUMBER OF TIMES AT WHICH SIMULATION RESULTS',
     &' ARE SAVED =',I5)
 1055 FORMAT(1X,'TOTAL ELAPSED TIMES AT WHICH SIMULATION RESULTS ',
     & 'ARE SAVED: ',100(/1X,8G13.5))
C
C--READ NUMBER OF OBSERVATION POINTS
      READ(IN,'(2I10)',ERR=100,IOSTAT=IERR) NOBS,NPROBS
      IF(NPROBS.LT.1) NPROBS=1
  100 IF(IERR.NE.0) THEN
        BACKSPACE (IN)
        READ(IN,'(I10)') NOBS
        NPROBS=1
      ENDIF
      WRITE(IOUT,1056) NOBS
      IF(NOBS.GT.0) THEN
        ALLOCATE(LOCOBS(3,NOBS))
      ELSE
        ALLOCATE(LOCOBS(3,1))
      ENDIF
      IF(NOBS.GT.0) THEN
        WRITE(IOUT,1062) IOBS+1,NPROBS
        WRITE(IOUT,1060)
        DO N=1,NOBS
          READ(IN,'(3I10)') (LOCOBS(I,N),I=1,3)
          WRITE(IOUT,'(I4,4X,3(I5,2X))') N,(LOCOBS(I,N),I=1,3)
        ENDDO
        FLNAME='MT3Dnnn.OBS'
        DO INDEX=1,NCOMP
          WRITE(FLNAME(5:7),'(I3.3)') INDEX
          CALL OPENFL(IOBS+INDEX,0,FLNAME,1,FINDEX)
          WRITE(IOBS+INDEX,1063) ((LOCOBS(I,N),I=1,3),N=1,NOBS)
        ENDDO
      ENDIF
 1056 FORMAT(/1X,'NUMBER OF OBSERVATION POINTS =',I5)
 1060 FORMAT(1X,'LOCATION OF OBSERVATION POINTS'/1X,30('.')
     &      /1X,'NUMBER  LAYER   ROW   COLUMN')
 1062 FORMAT(1X,'SAVE CONCENTRATIONS AT OBSERVATION POINTS IN FILES ',
     & '[MT3Dnnn.OBS]'/1X,' FOR EACH SPECIES ',
     & 'ON UNITS ',I3,' AND ABOVE, EVERY',I3,' TRANSPORT STEPS')
 1063 FORMAT(1X,' STEP   TOTAL TIME',
     & '             LOCATION OF OBSERVATION POINTS (K,I,J)'
     & /1X,17X,16(1X,3I4,1X)/(1X,17X,16(1X,3I4,1X)))
C
C--READ AND ECHO LOGICAL FLAG CHKMAS
      READ(IN,'(L10,I10)',ERR=105,IOSTAT=IERR) CHKMAS,NPRMAS
      IF(NPRMAS.LT.1) NPRMAS=1
  105 IF(IERR.NE.0) THEN
        BACKSPACE (IN)
        READ(IN,'(L10)') CHKMAS
        NPRMAS=1
      ENDIF
      IF(CHKMAS) THEN
        WRITE(IOUT,1064) IMAS+1,NPRMAS
        FLNAME='MT3Dnnn.MAS'
        DO INDEX=1,NCOMP
          WRITE(FLNAME(5:7),'(I3.3)') INDEX
          CALL OPENFL(IMAS+INDEX,0,FLNAME,1,FINDEX)
          WRITE(IMAS+INDEX,1066)
          WRITE(IMAS+INDEX,1068) TUNIT,MUNIT,MUNIT,MUNIT,MUNIT
        ENDDO
        IF(DOMINSAT) THEN                                      !# LINE 710 BTN
C.......CREATE ANOTHER FILE SIMILAR TO MAS - BUT TO STORE CELL-BY-CELL AND MASS-TO-DRY  !# LINE 711 BTN