C
      SUBROUTINE FMI1AR()
C **********************************************************************
C THIS SUBROUTINE CHECKS FLOW-TRANSPORT LINK FILE AND ALLOCATES SPACE
C FOR ARRAYS THAT MAY BE NEEDED BY FLOW MODEL-INTERFACE (FMI) PACKAGE.
C **********************************************************************
C last modified: 10-01-2014
C
      USE MT3DMS_MODULE, ONLY: INFTL,IOUT,MXTRNOP,iUnitTRNOP,NPERFL,ISS,
     &                         IVER,IFTLFMT,
     &         NPERFL,ISS,IVER,FWEL,FDRN,FRCH,FEVT,FRIV,FGHB,
     &         FSTR,FRES,FFHB,FIBS,FTLK,FLAK,FMNW,FDRT,FETS,
     &         FSWT,FSFR,FUZF
     
      IMPLICIT  NONE
      INTEGER   
     &          MTWEL,MTDRN,MTRCH,MTEVT,MTRIV,MTGHB,MTCHD,
     &          MTSTR,MTFHB,MTRES,MTTLK,MTIBS,MTLAK,
     &          MTDRT,MTETS,MTMNW,MTSWT,MTSFR,MTUZF,IERR
      CHARACTER VERSION*11
C
C--PRINT PACKAGE NAME AND VERSION NUMBER
      WRITE(IOUT,1030) INFTL
 1030 FORMAT(1X,'FMI1 -- FLOW MODEL INTERFACE PACKAGE,',
     & ' VERSION 1, OCTOBER 2014, INPUT READ FROM UNIT',I3)
C
C--ALLOCATE
      ALLOCATE(NPERFL,ISS,IVER,FWEL,FDRN,FRCH,FEVT,FRIV,FGHB,
     &         FSTR,FRES,FFHB,FIBS,FTLK,FLAK,FMNW,FDRT,FETS,
     &         FSWT,FSFR,FUZF)
C
C--INITIALIZE
      ISS=1
      NPERFL=0
      IVER=2
      VERSION=' '
      FWEL=.FALSE.
      FDRN=.FALSE.
      FRCH=.FALSE.
      FEVT=.FALSE.
      FRIV=.FALSE.
      FGHB=.FALSE.
      FSTR=.FALSE.
      FRES=.FALSE.
      FFHB=.FALSE.
      FIBS=.FALSE.
      FTLK=.FALSE.
      FLAK=.FALSE.
      FMNW=.FALSE.
      FDRT=.FALSE.
      FETS=.FALSE.
      FSWT=.FALSE.
      FSFR=.FALSE.
      FUZF=.FALSE.
      MTSTR=0
      MTRES=0
      MTFHB=0
      MTDRT=0
      MTETS=0
      MTTLK=0
      MTIBS=0
      MTLAK=0
      MTMNW=0
      MTSWT=0
      MTSFR=0
      MTUZF=0
C
C--READ HEADER OF FLOW-TRANSPORT LINK FILE
      IF(IFTLFMT.EQ.0) THEN
        READ(INFTL,ERR=100,IOSTAT=IERR) VERSION,MTWEL,MTDRN,MTRCH,
     &   MTEVT,MTRIV,MTGHB,MTCHD,ISS,NPERFL
      ELSEIF(IFTLFMT.EQ.1) THEN
        READ(INFTL,*,ERR=100,IOSTAT=IERR) VERSION,MTWEL,MTDRN,MTRCH,
     &   MTEVT,MTRIV,MTGHB,MTCHD,ISS,NPERFL
      ENDIF
C
  100 IF(VERSION(1:4).NE.'MT3D'.OR.IERR.NE.0) THEN
        GOTO 500
      ELSEIF(VERSION(1:11).EQ.'MT3D4.00.00') THEN
        REWIND(INFTL)
        IF(IFTLFMT.EQ.0) THEN
          READ(INFTL) VERSION,MTWEL,MTDRN,MTRCH,MTEVT,            !5
     &     MTRIV,MTGHB,MTCHD,ISS,NPERFL,                          !10
     &     MTSTR,MTRES,MTFHB,MTDRT,MTETS,MTTLK,MTIBS,MTLAK,MTMNW, !19
     &     MTSWT,MTSFR,MTUZF                                      !22
        ELSEIF(IFTLFMT.EQ.1) THEN
          READ(INFTL,*) VERSION,MTWEL,MTDRN,MTRCH,MTEVT,
     &     MTRIV,MTGHB,MTCHD,ISS,NPERFL,
     &     MTSTR,MTRES,MTFHB,MTDRT,MTETS,MTTLK,MTIBS,MTLAK,MTMNW,
     &     MTSWT,MTSFR,MTUZF
        ENDIF
      ENDIF
C
C--DETERMINE WHICH FLOW COMPONENTS USED IN FLOW MODEL
      IF(MTWEL.GT.0) FWEL=.TRUE.
      IF(MTDRN.GT.0) FDRN=.TRUE.
      IF(MTRCH.GT.0) FRCH=.TRUE.
      IF(MTEVT.GT.0) FEVT=.TRUE.
      IF(MTRIV.GT.0) FRIV=.TRUE.
      IF(MTGHB.GT.0) FGHB=.TRUE.
      IF(MTSTR.GT.0) FSTR=.TRUE.
      IF(MTRES.GT.0) FRES=.TRUE.
      IF(MTFHB.GT.0) FFHB=.TRUE.
      IF(MTIBS.GT.0) FIBS=.TRUE.
      IF(MTTLK.GT.0) FTLK=.TRUE.
      IF(MTLAK.GT.0) FLAK=.TRUE.
      IF(MTMNW.GT.0) FMNW=.TRUE.
      IF(MTDRT.GT.0) FDRT=.TRUE.
      IF(MTETS.GT.0) FETS=.TRUE.
      IF(MTSWT.GT.0) FSWT=.TRUE.
      IF(MTSFR.GT.0) FSFR=.TRUE.
      IF(MTUZF.GT.0) FUZF=.TRUE.
C
C--DETERMINE IF THE SSM PACKAGE IS REQUIRED
  200 IF(iUnitTRNOP(3).EQ.0) THEN
        IF(FWEL.OR.FDRN.OR.FRCH.OR.FEVT.OR.FRIV.OR.FGHB.OR.
     &   FSTR.OR.FRES.OR.FFHB.OR.FIBS.OR.FTLK.OR.FLAK.OR.FMNW.OR.
     &   FDRT.OR.FETS.OR.FSWT.OR.FSFR.OR.FUZF) THEN
          WRITE(*,300)
          CALL USTOP(' ')
        ELSEIF(MTCHD.GT.0) THEN
          WRITE(*,302)
          CALL USTOP(' ')
        ELSEIF(ISS.EQ.0) THEN
          WRITE(*,304)
          CALL USTOP(' ')
        ENDIF
      ENDIF
  300 FORMAT(/1X,'ERROR: THE SSM PACKAGE MUST BE USED',
     & ' IN THE CURRENT SIMULATION',
     & /1X,'BECAUSE THE FLOW MODEL INCLUDES A SINK/SOURCE PACKAGE.')
  302 FORMAT(/1X,'ERROR: THE SSM PACKAGE MUST BE USED',
     & ' IN THE CURRENT SIMULATION',
     & /1X,'BECAUSE THE FLOW MODEL CONTAINS CONSTANT-HEAD CELLS.')
  304 FORMAT(/1X,'ERROR: THE SSM PACKAGE MUST BE USED',
     & ' IN THE CURRENT SIMULATION',
     & /1X,'BECAUSE THE FLOW MODEL IS TRANSIENT.')
C
C--PRINT KEY INFORMATION OF THE FLOW MODEL
      IF(ISS.EQ.0) THEN
        WRITE(IOUT,310)
      ELSE
        WRITE(IOUT,320)
      ENDIF
      IF(MTCHD.GT.0) WRITE(IOUT,330)
      WRITE(IOUT,'(1X)')
  310 FORMAT(1X,'FLOW MODEL IS TRANSIENT')
  320 FORMAT(1X,'FLOW MODEL IS STEADY-STATE')
  330 FORMAT(1X,'FLOW MODEL CONTAINS CONSTANT-HEAD CELLS')
C
C--DONE, RETURN
      GOTO 1000
C
C--ERROR READING THE FLOW-TRANSPORT LINK FILE
  500 WRITE(*,600)
      WRITE(IOUT,600)
      CALL USTOP(' ')
  600 FORMAT(/1X,'Error Reading Flow-Transport Link File',
     & ' Possibly Caused by:',
     & /1X,'1. Incompatible Styles of Unformatted Files',
     & ' Used by MODFLOW and MT3DMS;'
     & /1X,'2. Unformatted Flow-Transport Link File Saved by',
     & ' Verison 1 of LinkMT3D',
     & /1X,'   Package Which Is No Longer Supported by MT3DMS.')
C
C--CHECK IF PACKAGES ARE ON
      IF(FUZF) THEN
        IF(iUnitTRNOP(7).EQ.0) WRITE(IOUT,*) ' UZT FILE IS REQUIRED'
        STOP
      ELSE
        IF(iUnitTRNOP(7).GT.0) THEN
          WRITE(IOUT,*) ' UZT FILE WILL NOT BE USED'
          iUnitTRNOP(7)=0
        ENDIF
      ENDIF
      IF(FLAK) THEN
        IF(iUnitTRNOP(18).EQ.0) WRITE(IOUT,*) ' LKT FILE IS REQUIRED'
        STOP
      ELSE
        IF(iUnitTRNOP(18).GT.0) THEN
          WRITE(IOUT,*) ' LKT FILE WILL NOT BE USED'
          iUnitTRNOP(18)=0
        ENDIF
      ENDIF
      IF(FSFR) THEN
        IF(iUnitTRNOP(19).EQ.0) WRITE(IOUT,*) ' SFT FILE IS REQUIRED'
        STOP
      ELSE
        IF(iUnitTRNOP(19).GT.0) THEN
          WRITE(IOUT,*) ' SFT FILE WILL NOT BE USED'
          iUnitTRNOP(19)=0
        ENDIF
      ENDIF
C
 1000 RETURN
      END
C
C
      SUBROUTINE FMI1RP1(KPER,KSTP)
C **********************************************************************
C THIS SUBROUTINE READS SATURATED CELL THICKNESS, FLUXES ACROSS CELL
C INTERFACES, AND FLOW RATE TO OR FROM TRANSIENT STORAGE
C FROM AN UNFORMATTED FILE SAVED BY THE FLOW MODEL, AND PREPARES THEM
C IN THE FORMS NEEDED BY THE TRANSPORT MODEL.
C **********************************************************************
C last modified: 10-01-2014
C
      USE MIN_SAT  
      USE UZTVARS,       ONLY: WC,UZFLX,UZQSTO,SATOLD,SATNEW,
     &                         PRSITYSAV,IUZFOPT,IUZFOPTG,IUZFBND
      USE MT3DMS_MODULE, ONLY: INFTL,IOUT,NCOL,NROW,NLAY,NCOMP,
     &                         FPRT,LAYCON,ICBUND,HORIGN,DH,PRSITY,
     &                         DELR,DELC,DZ,XBC,YBC,ZBC,QSTO,COLD,CNEW,
     &                         RETA,QX,QY,QZ,DTRACK,DTRACK2,THKMIN,ISS,
     &                         IVER,iUnitTRNOP,PRSITY,FUZF,
     &                         NOCREWET  
C
      IMPLICIT  NONE
      INTEGER   INUF,J,I,K,KPER,KSTP,
     &          JTRACK,ITRACK,KTRACK,INDEX,
     &          IC,IR
      REAL      WW,WTBL,THKSAT,TK,CTMP,CREWET,THKMIN0
      CHARACTER TEXT*16
C
      JTRACK=0
      ITRACK=0
      KTRACK=0
C
      INUF=INFTL
C
C--READ UNSAT ZONE WATER CONTENT (UNITLESS)
      IF(FUZF) THEN 
        IF(IUZFOPTG.EQ.0) THEN
          TEXT='WATER CONTENT   '
          CALL READHQ(INUF,IOUT,NCOL,NROW,NLAY,KSTP,KPER,TEXT,
     &                WC,FPRT)                                
        ENDIF
C                                                             
C--READ UPPER-FACE FLUX TERMS                                 
        TEXT='UZ FLUX         '                               
        CALL READHQ(INUF,IOUT,NCOL,NROW,NLAY,KSTP,KPER,TEXT,  
     &              UZFLX,FPRT)                               
C                                                             
C--READ UNSATURATED ZONE STORAGE TERM (UNIT: L**3/T)          
        TEXT='UZQSTO          '                               
        CALL READHQ(INUF,IOUT,NCOL,NROW,NLAY,KSTP,KPER,TEXT,  
     &              UZQSTO,FPRT)                              
!C                                                            
!C--READ SURFACE LEAKANCE TERM (UNIT: L**3/T)                 
!        TEXT='GWQOUT          '                              
!        CALL READHQ(INUF,IOUT,NCOL,NROW,NLAY,KSTP,KPER,TEXT, 
!     &              SURFLK,FPRT)                             
      ENDIF                                                   
C
C--READ SATURATED THICKNESS (UNIT: L).
      IF(IVER.EQ.2) THEN
        TEXT='THKSAT'
      ELSEIF(IVER.EQ.1) THEN
        TEXT='HEAD'
      ENDIF
      CALL READHQ(INUF,IOUT,NCOL,NROW,NLAY,KSTP,KPER,TEXT,DH,FPRT)
      DO K=1,NLAY                                                 
        DO I=1,NROW                                               
          DO J=1,NCOL                                             
            IF(ICBUND(J,I,K,1).NE.0 .AND. DH(J,I,K).GT.1e25) THEN 
              DH(J,I,K)=0                                         
            ENDIF                                                 
          ENDDO                                                   
        ENDDO                                                     
      ENDDO                                                       
C
C--READ RIGHT-FACE FLOW TERMS IF MORE THAN ONE COLUMN (UNIT: L**3/T).
      IF(NCOL.LT.2) GOTO 100
      TEXT='QXX'
      CALL READHQ(INUF,IOUT,NCOL,NROW,NLAY,KSTP,KPER,TEXT,QX,FPRT)
C
C--READ FRONT-FACE FLOW TERMS IF MORE THAN ONE ROW (UNIT: L**3/T).
  100 IF(NROW.LT.2) GOTO 110
      TEXT='QYY'
      CALL READHQ(INUF,IOUT,NCOL,NROW,NLAY,KSTP,KPER,TEXT,QY,FPRT)
C
C--READ LOWER-FACE FLOW TERMS IF MORE THAN ONE LAYER (UNIT: L**3/T).
  110 IF(NLAY.LT.2) GOTO 120
      TEXT='QZZ'
      CALL READHQ(INUF,IOUT,NCOL,NROW,NLAY,KSTP,KPER,TEXT,QZ,FPRT)
C
C--READ STORAGE TERM (UNIT: L**3/T).
  120 TEXT='STO'
      IF(IVER.EQ.2.AND.ISS.EQ.0) THEN
        CALL READHQ(INUF,IOUT,NCOL,NROW,NLAY,KSTP,KPER,TEXT,QSTO,FPRT)
      ENDIF
C
C--ONLY PERFORM THE NEXT BIT OF CODE IF UZF IS ACTIVE IN THE
C--CURRENT CELL                                      
      IF(FUZF) THEN
      IF(IUZFOPTG.EQ.0) THEN                    
C--IF NOT THE FIRST TIME STEP, COPY SATNEW TO SATOLD 
        IF(KPER.NE.1 .OR. KSTP.NE.1) THEN            
          DO K=1,NLAY                                
            DO I=1,NROW                              
              DO J=1,NCOL                            
                IF(IUZFBND(J,I).GT.0) THEN           
                  SATOLD(J,I,K)=SATNEW(J,I,K)        
                ENDIF                                
              ENDDO                                  
            ENDDO                                    
          ENDDO                                      
        ENDIF                                        
C                                                    
C--COMPUTE SATURATION                                
        PRSITY=>PRSITYSAV                            
        DO K=1,NLAY                                  
          DO I=1,NROW                                
            DO J=1,NCOL                              
              IF(DH(J,I,K).GE.DZ(J,I,K)) THEN        
                SATNEW(J,I,K)=1                      
              ELSEIF(DH(J,I,K).LT.DZ(J,I,K).AND.     
     &        .NOT.ICBUND(J,I,K,1).EQ.0) THEN        
                IF(INT(DH(J,I,K)).EQ.-111) THEN      
                  SATNEW(J,I,K)=1                    
                ELSE                                 
                  SATNEW(J,I,K)=((DZ(J,I,K)-DH(J,I,K))/DZ(J,I,K))*
     &                          WC(J,I,K)/PRSITY(J,I,K)+          
     &                          DH(J,I,K)/DZ(J,I,K)*1             
                ENDIF                                             
              ENDIF                                               
            ENDDO                                                 
          ENDDO                                                   
        ENDDO                                                     
C                                                                 
C--MELD UZFLX AND QZZ ARRAY SO THAT UZFLX DOESN'T NEED TO BE DEALT
C--WITH LATER IN THE CODE, IT'LL INSTEAD BE IMPLICIT IN QZ        
        DO K=1,(NLAY-1)                                           
          DO I=1,NROW                                             
            DO J=1,NCOL                                           
              IF(ICBUND(J,I,K,1).NE.0) THEN                       
C--THE NEXT LINE THAT CHECKS FOR -111 IS DUE TO CONFINED LAYERS,  
C  ENSURES QZ ISN'T SET TO UZFLX IN THE EVENT DH = -111           
                IF(INT(DH(J,I,K)).EQ.-111) DH(J,I,K)=DZ(J,I,K)    
                IF(DH(J,I,K).LT.1E-5 .AND. .NOT. 
     &              UZFLX(J,I,K+1).LE.0.0) THEN                        
                  QZ(J,I,K)=UZFLX(J,I,K+1)                        
                ENDIF                                             
              ENDIF                                               
            ENDDO                                                 
          ENDDO                                                   
        ENDDO                                                     
C                                                                 
C--PRSITY IS USED BELOW AND THEREFORE NEEDS TO BE UPDATED HERE    
C--FOR BOTH THE SATURATED AND UNSATURATED CASE                    
        DO K=1,NLAY                                               
          DO I=1,NROW                                             
            DO J=1,NCOL
              IF(IUZFBND(J,I).EQ.0)THEN
                WC(J,I,K)=PRSITY(J,I,K)
              ELSE
                WC(J,I,K)=SATNEW(J,I,K)*PRSITY(J,I,K)               
              ENDIF
            ENDDO                                                 
          ENDDO                                                   
        ENDDO                                                     
        PRSITYSAV=>PRSITY                                         
        PRSITY=>WC                                                
      ENDIF                                                       
      ENDIF                                                       
C
C--SET ICBUND=0 IF CELL IS DRY OR INACTIVE (INDICATED BY FLAG 1.E30)
C--AND REACTIVATE DRY CELL IF REWET AND ASSIGN CONC AT REWET CELL
C--WITH UZF TURNED ON THE GRID BECOMES FIXED.  THE USER PROVIDEDED
C--ICBUND ARRAY SHOULD REMAIN UNTOUCHED                           
      IF(.NOT.FUZF.OR.IUZFOPTG.EQ.0) THEN                         
        DO K=1,NLAY
          DO I=1,NROW
            DO J=1,NCOL
            IF(k.eq.36.and.i.eq.1.and.J.EQ.120)THEN
            CONTINUE
            ENDIF
              IF(FUZF) THEN
                IF(IUZFBND(J,I).GT.0) CYCLE
              ENDIF
              IF(ABS(DH(J,I,K)-1.E30).LT.1.E-5) THEN
                ICBUND(J,I,K,1)=0
              ELSEIF(ICBUND(J,I,K,1).EQ.0.AND.PRSITY(J,I,K).GT.0) THEN
                ICBUND(J,I,K,1)=30000
                DO INDEX=1,NCOMP
                  IF(NOCREWET.EQ.1) THEN
                  ELSE
                  CTMP=CREWET(NCOL,NROW,NLAY,CNEW(:,:,:,INDEX),
     &                        ICBUND,XBC,YBC,ZBC,J,I,K)
                  CTMP=(COLD(J,I,K,INDEX)*(RETA(J,I,K,INDEX)-1.0)+CTMP)
     &                /RETA(J,I,K,INDEX)
                  ENDIF
                  IF(NOCREWET.EQ.1) CTMP=0.
                  CNEW(J,I,K,INDEX)=CTMP
                  IF(MUTDRY.EQ.0) THEN
                    WRITE(IOUT,122) K,I,J,INDEX,CNEW(J,I,K,INDEX)
                  ENDIF 
                ENDDO
              ENDIF
            ENDDO
          ENDDO
        ENDDO
  122   FORMAT(/1X,'DRY CELL REACTIVATED AT K =',I4,',   I=',I4,
     &   ',   J=',I4/1X,'FOR SPECIES ',I3.3,
     &   ' WITH STARTING CONCENTRATION =',G13.5)
      ENDIF 
C
C--SET SATURATED THICKNESS [DH] TO LAYER THICKNESS [DZ]
C--FOR CONFINED LAYERS IF THE FLOW-TRANSPORT LINK FILE
C--IS SAVED BY LKMT PACKAGE VERSION 2 OR LATER
      IF(IVER.EQ.2) THEN
        DO K=1,NLAY
          DO I=1,NROW
            DO J=1,NCOL
              IF(ICBUND(J,I,K,1).EQ.0) CYCLE
              IF(.NOT.(iUnitTRNOP(7).GT.0)) THEN 
                IF(LAYCON(K).EQ.0.OR.INT(DH(J,I,K)).EQ.-111) THEN
                  DH(J,I,K)=DZ(J,I,K)
                ENDIF 
              ELSEIF(iUnitTRNOP(7).GT.0.AND. IUZFOPTG.EQ.0) THEN
C--SET DH EQUAL TO DZ FOR THE CASE WHEN THE UZF PACKAGE IS ACTIVE 
                IF(IUZFBND(J,I).GT.0) THEN                        
                  DH(J,I,K)=DZ(J,I,K)                             
                ENDIF                                             
              ELSEIF(iUnitTRNOP(7).GT.0.AND.IUZFOPTG.EQ.1) THEN   
                !don't need to do anything in this case           
              ENDIF
            ENDDO
          ENDDO
        ENDDO
C
C--CALCULATE SATURATED THICKNESS FROM INPUT ARRAYS [HTOP] AND [DZ]
C--IF THE FLOW-TRANSPORT LINK FILE IS SAVED BY LKMT PACKAGE VER 1
      ELSEIF(IVER.EQ.1) THEN
        DO K=1,NLAY
          DO I=1,NROW
            DO J=1,NCOL
              IF(ICBUND(J,I,K,1).EQ.0) CYCLE
              IF(LAYCON(K).EQ.0) THEN
                THKSAT=DZ(J,I,K)
              ELSE
                WTBL=HORIGN-DH(J,I,K)
                THKSAT=ZBC(J,I,K)+0.5*DZ(J,I,K)-WTBL
                THKSAT=MIN(THKSAT,DZ(J,I,K))
              ENDIF
              DH(J,I,K)=THKSAT
            ENDDO
          ENDDO
        ENDDO
      ENDIF
C
C--SET CELLS TO INACTIVE IF SATURATED THICKNESS < OR = 0, OR
C--IF SATURATED THICKNESS IS BELOW USER-SPECIFIED MINIMUM [THKMIN].
C--WITH UZF TURNED ON THE GRID BECOMES FIXED.  THE USER PROVIDEDED
C--ICBUND ARRAY SHOULD REMAIN UNTOUCHED                           
      IF(DRYON) THEN                                    
        NICBND2=0                                                 
        ICBND2=0                                                  
      ENDIF                                                       
      IF(.NOT.FUZF.OR.IUZFOPTG.EQ.0) THEN                          
        DO K=1,NLAY
          DO I=1,NROW
            DO J=1,NCOL
            IF(k.eq.36.and.i.eq.1.and.J.EQ.120)THEN
            CONTINUE
            ENDIF
              IF(FUZF) THEN
                IF(IUZFBND(J,I).GT.0) CYCLE
              ENDIF
              IF(ICBUND(J,I,K,1).EQ.0) CYCLE
              IF(DH(J,I,K).LE.0) THEN
                IF(DRYON) THEN          
                  ICBND2(J,I,K)=1                 
                  NICBND2=NICBND2+1               
                ENDIF                             
                IF(MUTDRY.EQ.0) THEN              
                  WRITE(IOUT,355) DH(J,I,K),K,I,J
                ENDIF
                ICBUND(J,I,K,1)=0
              ELSEIF(THKMIN.GT.0) THEN
                THKMIN0=THKMIN*DZ(J,I,K)
                IF(IABSMIN.EQ.1) THKMIN0=THKMIN
                IF(DH(J,I,K).LT.THKMIN0) THEN
                  IF(DRYON) THEN     
                    ICBND2(J,I,K)=1            
                    NICBND2=NICBND2+1          
                  ENDIF                        
                  IF(MUTDRY.EQ.0) THEN         
                    WRITE(IOUT,365) DH(J,I,K),THKMIN0,K,I,J
                  ENDIF   
                  ICBUND(J,I,K,1)=0
                ENDIF
              ENDIF
            ENDDO
          ENDDO
        ENDDO
  355   FORMAT(/1X,'WARNING: SATURATED THICKNESS =',G13.5,
     &   ' NOT ALLOWED IN TRANSPORT MODEL'
     &   /10X,'AT ACTIVE CELL K =',I4,',   I=',I4,',   J=',I4,
     &   ';  RESET AS INACTIVE')
  365   FORMAT(/1X,'WARNING: SATURATED THICKNESS =',G13.5,
     &   ' BELOW SPECIFIED MINIMUM =',G13.5,
     &   /10X,'AT ACTIVE CELL K =',I4,',   I=',I4,',   J=',I4,
     &   ';  RESET AS INACTIVE')
      ENDIF
C
C--DETERMINE MAXIMUM TIME INCREMENT DURING WHICH ANY PARTICLE
C--CANNOT MOVE MORE THAN ONE CELL IN ANY DIRECTION.
      DTRACK=1.E30
C
      IF(NCOL.LT.2) GOTO 410
      DO K=1,NLAY
        DO I=1,NROW
          DO J=2,NCOL
C
            IF(ICBUND(J,I,K,1).NE.0) THEN
              TK=0.5*(QX(J-1,I,K)+QX(J,I,K))
              IF(TK.EQ.0) CYCLE
              TK=DELR(J)*DELC(I)*DH(J,I,K)*PRSITY(J,I,K)/TK
              IF(ABS(TK).LT.DTRACK) THEN
                DTRACK=ABS(TK)
                JTRACK=J
                ITRACK=I
                KTRACK=K
              ENDIF
            ENDIF
C
          ENDDO
        ENDDO
      ENDDO
C
  410 IF(NROW.LT.2) GOTO 420
      DO K=1,NLAY
        DO J=1,NCOL
          DO I=2,NROW
C
            IF(ICBUND(J,I,K,1).NE.0) THEN
              TK=0.5*(QY(J,I-1,K)+QY(J,I,K))
              IF(TK.EQ.0) CYCLE
              TK=DELR(J)*DELC(I)*DH(J,I,K)*PRSITY(J,I,K)/TK
              IF(ABS(TK).LT.DTRACK) THEN
                DTRACK=ABS(TK)
                JTRACK=J
                ITRACK=I
                KTRACK=K
              ENDIF
            ENDIF
C
          ENDDO
        ENDDO
      ENDDO
C
  420 IF(NLAY.LT.2) GOTO 430
      DO J=1,NCOL
        DO I=1,NROW
          DO K=2,NLAY
C
            IF(ICBUND(J,I,K,1).NE.0) THEN
              TK=0.5*(QZ(J,I,K-1)+QZ(J,I,K))
              IF(TK.EQ.0) CYCLE
              TK=DELR(J)*DELC(I)*DH(J,I,K)*PRSITY(J,I,K)/TK
              IF(ABS(TK).LT.DTRACK) THEN
                DTRACK=ABS(TK)
                JTRACK=J
                ITRACK=I
                KTRACK=K
              ENDIF
            ENDIF
C
          ENDDO
        ENDDO
      ENDDO
C
C--PRINT INFORMATION ON DTRACK
  430 WRITE(IOUT,500) DTRACK,KTRACK,ITRACK,JTRACK
  500 FORMAT(/1X,'MAXIMUM STEPSIZE DURING WHICH ANY PARTICLE CANNOT',
     & ' MOVE MORE THAN ONE CELL'/1X,'=',G11.4,
     & '(WHEN MIN. R.F.=1)  AT K=',I4,', I=',I4,
     & ', J=',I4)
C
C--DETERMINE STABILITY CRITERION ASSOCIATED WITH EXPLICIT FINITE
C--DIFFERENCE SOLUTION OF THE ADVECTION TERM
      DTRACK2=1.E30
C
      DO K=1,NLAY
        DO I=1,NROW
          DO J=1,NCOL
            IF(ICBUND(J,I,K,1).EQ.0) CYCLE
            TK=0.
            IF(J.GT.1) TK=TK+MAX(ABS(QX(J-1,I,K)),ABS(QX(J,I,K)))
            IF(I.GT.1) TK=TK+MAX(ABS(QY(J,I-1,K)),ABS(QY(J,I,K)))
            IF(K.GT.1) TK=TK+MAX(ABS(QZ(J,I,K-1)),ABS(QZ(J,I,K)))
            IF(TK.EQ.0) CYCLE
            TK=DELR(J)*DELC(I)*DH(J,I,K)*PRSITY(J,I,K)/TK
            IF(TK.LT.DTRACK2) THEN
              DTRACK2=TK
              JTRACK=J
              ITRACK=I
              KTRACK=K
            ENDIF
          ENDDO
        ENDDO
      ENDDO
C
C--PRINT INFORMATION ON DTRACK2
      WRITE(IOUT,550) DTRACK2,KTRACK,ITRACK,JTRACK
  550 FORMAT(/1X,'MAXIMUM STEPSIZE WHICH MEETS STABILITY CRITERION',
     & ' OF THE ADVECTION TERM'/1X,
     & '(FOR PURE FINITE-DIFFERENCE OPTION, MIXELM=0) '/1X,'=',G11.4,
     & '(WHEN MIN. R.F.=1)  AT K=',I4,', I=',I4,', J=',I4)
C
C--DIVIDE VOLUMETRIC QX, QY AND QZ BY AREAS
C--TO GET SPECIFIC DISCHAGES ACROSS EACH CELL INTERFACE
      IF(NCOL.LT.2) GOTO 910
      DO K=1,NLAY
        DO I=1,NROW
          DO J=1,NCOL-1
            WW=DELR(J+1)/(DELR(J+1)+DELR(J))
            THKSAT=DH(J,I,K)*WW+DH(J+1,I,K)*(1.-WW)
            IF(DOMINSAT) THEN                       
              IF(DH(J,I,K).LE.0. .OR. DH(J+1,I,K).LE.0.) THEN 
                IF(DH(J,I,K).GT.0.) THEN                      
                  THKSAT=DH(J,I,K)*WW                         
                ELSEIF(DH(J+1,I,K).GT.0.) THEN                
                  THKSAT=DH(J+1,I,K)*WW                       
                ELSE                                          
                  THKSAT=1.0E30                               
                ENDIF                                         
              ENDIF                                           
              THKSAT=ABS(DH(J,I,K))*WW+ABS(DH(J+1,I,K))*(1.-WW)
            ENDIF                                              
            IF(THKSAT.LE.0.OR.ICBUND(J,I,K,1).EQ.0) THEN
              IF(DOMINSAT) THEN           
                QX(J,I,K)=QX(J,I,K)/(DELC(I)*THKSAT)
              ELSE                                  
                QX(J,I,K)=0
                IF(J.GT.1) QX(J-1,I,K)=0.
              ENDIF
            ELSE
              QX(J,I,K)=QX(J,I,K)/(DELC(I)*THKSAT)
            ENDIF
          ENDDO
          IF(.NOT.DOMINSAT) THEN 
            IF(ICBUND(NCOL,I,K,1).EQ.0) QX(NCOL-1,I,K)=0.
          ENDIF
        ENDDO
      ENDDO
C
  910 IF(NROW.LT.2) GOTO 920
      DO K=1,NLAY
        DO J=1,NCOL
          DO I=1,NROW-1
            WW=DELC(I+1)/(DELC(I+1)+DELC(I))
            THKSAT=DH(J,I,K)*WW+DH(J,I+1,K)*(1.-WW)
            IF(DOMINSAT) THEN 
              IF(DH(J,I,K).LE.0. .OR. DH(J,I+1,K).LE.0.) THEN
                IF(DH(J,I,K).GT.0.) THEN      
                  THKSAT=DH(J,I,K)*WW         
                ELSEIF(DH(J,I+1,K).GT.0.) THEN
                  THKSAT=DH(J,I+1,K)*WW       
                ELSE                          
                  THKSAT=1.0E30               
                ENDIF                         
              ENDIF                           
              THKSAT=ABS(DH(J,I,K))*WW+ABS(DH(J,I+1,K))*(1.-WW)
            ENDIF                                              
            IF(THKSAT.LE.0.OR.ICBUND(J,I,K,1).EQ.0) THEN
              IF(DOMINSAT) THEN           
                QY(J,I,K)=QY(J,I,K)/(DELR(J)*THKSAT)
              ELSE                                  
                QY(J,I,K)=0
                IF(I.GT.1) QY(J,I-1,K)=0.
              ENDIF
            ELSE
              QY(J,I,K)=QY(J,I,K)/(DELR(J)*THKSAT)
            ENDIF
          ENDDO
          IF(.NOT.DOMINSAT) THEN
            IF(ICBUND(J,NROW,K,1).EQ.0) QY(J,NROW-1,K)=0.
          ENDIF
        ENDDO
      ENDDO
C
  920 IF(NLAY.LT.2) GOTO 990
      DO J=1,NCOL
        DO I=1,NROW
          DO K=1,NLAY
            THKSAT=DH(J,I,K)
            IF(THKSAT.LE.0.OR.ICBUND(J,I,K,1).EQ.0) THEN
              IF(DOMINSAT) THEN             
                QZ(J,I,K)=QZ(J,I,K)/(DELR(J)*DELC(I)) 
              ELSE                                    
                QZ(J,I,K)=0
                IF(K.GT.1) QZ(J,I,K-1)=0.
              ENDIF
            ELSE
              QZ(J,I,K)=QZ(J,I,K)/(DELR(J)*DELC(I))
            ENDIF
          ENDDO
        ENDDO
      ENDDO
C
C--DIVIDE STORAGE BY CELL VOLUME TO GET DIMENSION (1/TIME)
  990 CONTINUE
      DO K=1,NLAY
        DO I=1,NROW
          DO J=1,NCOL
            THKSAT=DH(J,I,K)  !WHEN UZT ACTIVE, DH IS DZ
            IF(THKSAT.LE.0.OR.ICBUND(J,I,K,1).EQ.0) THEN
              IF(DOMINSAT) THEN  
                QSTO(J,I,K)=QSTO(J,I,K)/(THKSAT*DELR(J)*DELC(I))
              ELSE                                              
                QSTO(J,I,K)=0
              ENDIF 
            ELSE
              IF(iUnitTRNOP(7).GT.0) THEN
                QSTO(J,I,K)=(QSTO(J,I,K)+UZQSTO(J,I,K))/ 
     &                       (THKSAT*DELR(J)*DELC(I))    
              ELSE                                       
                QSTO(J,I,K)=QSTO(J,I,K)/(THKSAT*DELR(J)*DELC(I))
              ENDIF                                             
            ENDIF
            IF(ABS(THKSAT-0.).LT.1.0E-5) QSTO(J,I,K)=0.
          ENDDO
        ENDDO
      ENDDO
C
C--SYNCHRONIZE ICBUND CONDITIONS OF ALL SPECIES
      IF(NCOMP.EQ.1) GOTO 999
      DO K=1,NLAY
        DO I=1,NROW
          DO J=1,NCOL
            DO INDEX=2,NCOMP
              IF(ICBUND(J,I,K,INDEX).GE.0) THEN
                ICBUND(J,I,K,INDEX)=IABS(ICBUND(J,I,K,1))
              ELSEIF(ICBUND(J,I,K,1).EQ.0) THEN
                ICBUND(J,I,K,INDEX)=0
              ENDIF
            ENDDO
          ENDDO
        ENDDO
      ENDDO
C
C--RETURN
  999 RETURN
      END
C
C
      SUBROUTINE FMI1RP2(KPER,KSTP)
C **********************************************************************
C THIS SUBROUTINE READS THE LOCATIONS AND FLOW RATES OF SINKS & SOURCES
C FROM AN UNFORMATTED FILE SAVED BY THE FLOW MODEL, AND PREPARES THEM
C IN THE FORMS NEEDED BY THE TRANSPORT MODEL.
C **********************************************************************
C last modified: 02-20-2010
C
      USE MIN_SAT,       ONLY: DRYON
      USE UZTVARS,       ONLY: UZET,GWET,IETFLG,FINFIL,UZFLX,SATNEW,
     &                         IUZFBND
      USE MT3DMS_MODULE, ONLY: INFTL,IOUT,NCOL,NROW,NLAY,NCOMP,FPRT,
     &                         LAYCON,ICBUND,DH,PRSITY,DELR,DELC,IRCH,
     &                         RECH,IEVT,EVTR,MXSS,NSS,NTSS,SS,BUFF,
     &                         DTSSM,
     &                         FWEL,FDRN,FRCH,FEVT,FRIV,FGHB,
     &                         FSTR,FRES,FFHB,FIBS,FTLK,FLAK,FMNW,FDRT,
     &                         FETS,FSWT,FSFR,ISS,NPERFL,
     &                         CNEW,SSMC,KSSZERO,
     &                         iUnitTRNOP
C
      IMPLICIT  NONE
      INTEGER   INUF,J,I,K,
     &          NUM,KPER,KSTP,IQ,KSSM,ISSM,JSSM,
     &          JJ,II,KK,JM1,JP1,IM1,IP1,KM1,KP1,INDEX
      INTEGER   INCTS,KOLD  
      REAL      VOLAQU,TM
      CHARACTER TEXT*16
C
      INUF=INFTL
C
C--RESET TOTAL NUMBER OF POINT SINKS/SOURCES AND CLEAR FLOW RATES
      NTSS=NSS
      SS(8,:)=0.
      DO NUM=1,NTSS
        SS(5,NUM)=0.
      ENDDO
C
C--RESET [ICBUND] VALUE AT ACTIVE CELLS TO UNITY
      DO K=1,NLAY
        DO I=1,NROW
          DO J=1,NCOL
            IF(ICBUND(J,I,K,1).GT.0) ICBUND(J,I,K,1)=1
          ENDDO
        ENDDO
      ENDDO
C
C--READ CONSTANT-HEAD FLOW TERM (UNIT: L**3/T).
      TEXT='CNH'
      IQ=1
      CALL READPS(INUF,IOUT,NCOL,NROW,NLAY,KSTP,KPER,TEXT,
     & BUFF,IQ,MXSS,NTSS,NSS,SS,ICBUND,FPRT)
C
C--READ WELL FLOW TERM (L**3/T) IF WELL OPTION USED IN FLOW MODEL.
      IF(FWEL) THEN
        TEXT='WEL'
        IQ=2
        CALL READPS(INUF,IOUT,NCOL,NROW,NLAY,KSTP,KPER,TEXT,
     &   BUFF,IQ,MXSS,NTSS,NSS,SS,ICBUND,FPRT)
      ENDIF
C