C
      SUBROUTINE RCT5AR(IN)
C **********************************************************************
C THIS SUBROUTINE ALLOCATES SPACE FOR ARRAYS NEEDED BY THE CHEMICAL 
C REACTION (RCT) PACKAGE.
C **********************************************************************
C last modified: 02-20-2010
C
      USE MT3DMS_MODULE, ONLY: INRCT,IOUT,NCOL,NROW,NLAY,NCOMP,ICBUND,
     &                         COLD,PRSITY,BUFF,SRCONC,RETA,RHOB,
     &                         PRSITY2,RETA2,ISOTHM,RFMIN,DTRCT,
     &                         IREACT,IRCTOP,IGETSC,IFMTRF,FRAC,SP1,SP2,
     &                         RC1,RC2,
     &                         SAVUCN,IUCN2                          !# LINE 261 RCT
      USE MIN_SAT, ONLY: ICIMDRY                        !# LINE 11 ADV
C
      USE RCTMOD                                               !# LINE 33 RCT
C
      IMPLICIT  NONE
      INTEGER   IN,J,I,K,JR,IR,KR,INDEX,IERR
      INTEGER   NODES                                          !# LINE 271 RCT
      REAL      TR,TINY,EPSILON,TOTPOR
      CHARACTER ANAME*24,FLNAME*50,FINDEX*30
      PARAMETER (TINY=1.E-30,EPSILON=0.5E-6)
      LOGICAL   EXISTED                                        !# LINE 283 RCT
C
      INRCT=IN
C
C--ALLOCATE AND INITIALIZE
      ALLOCATE(IREACT,IRCTOP,IGETSC,IFESLD,ISORBIMONLY,ISP1IM,
     1  rec_FileName,NSPECIAL,NEA,NED,NSTORE,Ad_methane_name,IUMETH,
     1  RVAL,NSOLID)
      ALLOCATE(FRAC(NCOL,NROW,NLAY))
      ALLOCATE(SP1(NCOL,NROW,NLAY,NCOMP))
      ALLOCATE(SP2(NCOL,NROW,NLAY,NCOMP))
      ALLOCATE(RC1(NCOL,NROW,NLAY,NCOMP))
      ALLOCATE(RC2(NCOL,NROW,NLAY,NCOMP))
      FRAC=0.
      SP1=0.
      SP2=0.
      RC1=0.
      RC2=0.
C
C--PRINT PACKAGE NAME AND VERSION NUMBER
      WRITE(IOUT,1000) INRCT
 1000 FORMAT(1X,'RCT5 -- CHEMICAL REACTION PACKAGE,',
     & ' VERSION 5, FEBRUARY 2010, INPUT READ FROM UNIT',I3)
C
C--READ AND ECHO SORPTION ISOTHERM TYPE AND FLAG IREACT
      READ(INRCT,'(6I10)',ERR=100,IOSTAT=IERR)
     & ISOTHM,IREACT,IRCTOP,IGETSC,IREACTION !,IFESLD            !# Amended 
  100 IF(IERR.NE.0) THEN
        IRCTOP=1
        IGETSC=0
        BACKSPACE (INRCT)
        READ(INRCT,'(2I10)') ISOTHM,IREACT
      ENDIF
C
      ISORBIMONLY=.FALSE.                                      !# LINE 56 RCT
      ISP1IM=0                                                 !# LINE 57 RCT
      IF(ISOTHM.EQ.-6) THEN                                    !# LINE 58 RCT
        ISORBIMONLY=.TRUE.                                     !# LINE 59 RCT
        ISP1IM=1                                               !# LINE 60 RCT
        ISOTHM=6                                               !# LINE 61 RCT
      ENDIF                                                    !# LINE 62 RCT
C                                                              !# LINE 63 RCT
CVSB      IREACTION=0                                          !# LINE 64 RCT
      IF(IREACT.EQ.90.OR.IREACT.EQ.91) THEN                    !# LINE 65 RCT
        IREACTION=1                                            !# LINE 66 RCT
        IREACT=IREACT-90                                       !# LINE 67 RCT
      ENDIF                                                    !# LINE 68 RCT
C                                                              !# LINE 69 RCT
      IF(ISOTHM.EQ.1) THEN
        WRITE(IOUT,1022)
      ELSEIF(ISOTHM.EQ.2) THEN
        WRITE(IOUT,1024)
      ELSEIF(ISOTHM.EQ.3) THEN
        WRITE(IOUT,1026)
      ELSEIF(ISOTHM.EQ.4) THEN
        WRITE(IOUT,1027)
      ELSEIF(ISOTHM.EQ.5) THEN
        WRITE(IOUT,2027)
      ELSEIF(ISOTHM.EQ.6) THEN
        WRITE(IOUT,3027)
        IF(ISP1IM.GE.1) WRITE(IOUT,1042)                       !# LINE 82 RCT
      ELSE
        WRITE(IOUT,1028)
      ENDIF
      IF(IREACT.EQ.0) THEN
        WRITE(IOUT,1030)
      ELSEIF(ireact.eq.1) THEN
        WRITE(IOUT,1032)
      ELSEIF(ireact.eq.2) THEN                                 !# LINE 90 RCT
        WRITE(IOUT,1033)                                       !# LINE 91 RCT
      ELSEIF(ireact.eq.3) THEN                                 !# LINE 92 RCT
        WRITE(IOUT,1035)                                       !# LINE 93 RCT
      ELSEIF(ireact.eq.100) THEN
        WRITE(IOUT,1034)
      ENDIF
C                                                                !# LINE 97 RCT
C-----DUAL-DOMAIN NOT ALLOWED WITH MONOD KINETIC DISSOLVED       !# LINE 98 RCT
      IF(IREACT.EQ.2.AND.(ISOTHM.EQ.5.OR.ISOTHM.EQ.6)) THEN      !# LINE 99 RCT
        WRITE(IOUT,*) 'IREACT=2 NOT ALLOWED WITH DUAL-DOMAIN'    !# LINE 100 RCT
        WRITE(*,*) 'IREACT=2 NOT ALLOWED WITH DUAL-DOMAIN'       !# LINE 101 RCT
        READ(*,*)                                                !# LINE 102 RCT
        STOP                                                     !# LINE 103 RCT
      ENDIF                                                      !# LINE 104 RCT
C                                                                !# LINE 105 RCT
C-----DUAL-DOMAIN NOT ALLOWED WITH MONOD KINETIC DISSOLVED       !# LINE 106 RCT
      IF(IREACT.EQ.3.AND.(ISOTHM.EQ.5.OR.ISOTHM.EQ.6)) THEN      !# LINE 107 RCT
        WRITE(IOUT,*) 'IREACT=3 NOT ALLOWED WITH DUAL-DOMAIN'    !# LINE 108 RCT
        WRITE(*,*) 'IREACT=3 NOT ALLOWED WITH DUAL-DOMAIN'       !# LINE 109 RCT
        READ(*,*)                                                !# LINE 110 RCT
        STOP                                                     !# LINE 111 RCT
      ENDIF                                                      !# LINE 112 RCT
C                                                                !# LINE 113 RCT
C-----NEED MULTIPLE SPECIED WITH IREACT=3                        !# LINE 114 RCT
      IF(IREACT.EQ.3.AND.NCOMP.LT.2) THEN                        !# LINE 115 RCT
        WRITE(IOUT,*) 'IREACT=3 NOT ALLOWED WITH SINGLE SPECIES' !# LINE 116 RCT
        WRITE(*,*) 'IREACT=3 NOT ALLOWED WITH SINGLE SPECIES'    !# LINE 117 RCT
        READ(*,*)                                                !# LINE 118 RCT
        STOP                                                     !# LINE 119 RCT
      ENDIF                                                      !# LINE 120 RCT
C                                                                !# LINE 121 RCT
      IF(IREACTION.EQ.1) THEN                                    !# LINE 122 RCT
        WRITE(IOUT,1036)                                         !# LINE 123 RCT
      ELSEIF(IREACTION.EQ.2) THEN                                !# LINE 124 RCT
        WRITE(IOUT,1038)                                         !# LINE 125 RCT
      ELSEIF(IREACTION.EQ.0) THEN                                !# LINE 126 RCT
      ELSE                                                       !# LINE 127 RCT
        WRITE(IOUT,*) 'IREACTION MUST BE 0, 1, OR 2'             !# LINE 128 RCT
        WRITE(*,*) 'IREACTION MUST BE 0, 1, OR 2'                !# LINE 129 RCT
        READ(*,*)                                                !# LINE 130 RCT
        STOP                                                     !# LINE 131 RCT
      ENDIF                                                      !# LINE 132 RCT
C                                                                !# LINE 137 RCT
 1022 FORMAT(1X,'TYPE OF SORPTION SELECTED IS [LINEAR]')
 1024 FORMAT(1X,'TYPE OF SORPTION SELECTED IS [FREUNDLICH]')
 1026 FORMAT(1X,'TYPE OF SORPTION SELECTED IS [LANGMUIR]')
 1027 FORMAT(1X,'TYPE OF SORPTION SELECTED IS [NON-EQUILIBRIUM]')
 2027 FORMAT(1X,'DUAL DOMAIN MASS TRANSFER IS SIMULATED')
 3027 FORMAT(1X,'DUAL DOMAIN MASS TRANSFER WITH SORPTION IS SIMULATED')
 1028 FORMAT(1X,'NO SORPTION [OR DUAL-DOMAIN MODEL] IS SIMULATED')
 1030 FORMAT(1X,'NO FIRST-ORDER RATE REACTION IS SIMULATED')
 1032 FORMAT(1X,'FIRST-ORDER IRREVERSIBLE REACTION',
     & ' [RADIOACTIVE DECAY OR BIODEGRADATION] IS SIMULATED')
 1033 FORMAT(1X,'MONOD KINETIC REACTION IS SIMULATED')           !# LINE 148 RCT
 1035 FORMAT(1X,'FIRST-ORDER CHAIN REACTION IS SIMULATED')       !# LINE 149 RCT
 1034 FORMAT(1X,'ZEROTH-ORDER DECAY OR PRODUCTION IS SIMULATED')
C
 1036 FORMAT(1X,'REACTION BETWEEN 1 EA AND 1 ED IS SIMULATED') !# LINE 151 RCT
 1038 FORMAT(1X,'MULTI-SPECIES KINETIC REACTION MODULE IS SIMULATED')          !# LINE 152 RCT
 1042 FORMAT(1X,'SEPARATE Kd FOR TWO DOMAINS')                   !# LINE 154 RCT
      IF(IRCTOP.LE.1) THEN
        IRCTOP=1
        WRITE(*,1050)
      ELSEIF(IRCTOP.GE.2) THEN
        IRCTOP=2
        WRITE(IOUT,1052)
      ENDIF
 1050 FORMAT(/1X,'WARNING: INPUT FILE FOR VER 1 OF [RCT] PACKAGE',
     & ' DETECTED;'/1X,'REACTION COEFFICIENTS ASSIGNED ONE VALUE',
     & ' PER LAYER'/)
 1052 FORMAT(1X,'REACTION COEFFICIENTS ASSIGNED CELL-BY-CELL')
      IF(IGETSC.EQ.0) THEN
        WRITE(IOUT,1060)
      ELSEIF(IGETSC.GT.0.AND.ISOTHM.LE.3) THEN
        WRITE(*,1061)
        CALL USTOP(' ')
      ELSEIF(IGETSC.GT.0.AND.ISOTHM.GT.3) THEN
        WRITE(IOUT,1062)
      ENDIF
 1060 FORMAT(1X,'INITIAL SORBED/IMMOBILE PHASE CONCENTRATION',
     & ' ASSIGNED BY DEFAULT')
 1061 FORMAT(1X,'ERROR: INITIAL SORBED CONCENTRATION FOR',
     & ' EQUILIBRIUM-CONTROLLED SORPTION CANNOT BE SPECIFIED;',
     & /1X,'INPUT VALUE FOR [IGETSC] MUST BE SET TO ZERO')
 1062 FORMAT(1X,'INITIAL SORBED/IMMOBILE PHASE CONCENTRATION',
     & ' READ FROM INPUT FILE')
C
C--ALLOCATE IF IREACTION=1                                     !# LINE 183 RCT
      IF(IREACTION.EQ.1) THEN                                  !# LINE 184 RCT
        ALLOCATE (CRCT(NCOL,NROW,NLAY,2),STAT=IERR)            !# LINE 185 RCT
        IF(IERR.NE.0) THEN                                     !# LINE 186 RCT
          WRITE(*,106)                                         !# LINE 187 RCT
  106     FORMAT(1X,'RCT: MEMORY ALLOCATION ERROR')            !# LINE 188 RCT
          CALL USTOP(' ')                                      !# LINE 189 RCT
        ENDIF                                                  !# LINE 190 RCT
      ENDIF                                                    !# LINE 191 RCT
C                                                              !# LINE 192 RCT
C--ALLOCATE RC3 IS IREACT=2                                    !# LINE 193 RCT
      IF(IREACT.EQ.2) THEN                                     !# LINE 194 RCT
        ALLOCATE(RC3(NCOL,NROW,NLAY,NCOMP),STAT=IERR)          !# LINE 195 RCT
        IF(IERR.NE.0) THEN                                     !# LINE 196 RCT
          WRITE(*,107)                                         !# LINE 197 RCT
  107     FORMAT(1X,'RC3: MEMORY ALLOCATION ERROR')            !# LINE 198 RCT
          CALL USTOP(' ')                                      !# LINE 199 RCT
        ENDIF                                                  !# LINE 200 RCT
      ENDIF                                                    !# LINE 201 RCT
C                                                              !# LINE 202 RCT
C--ALLOCATE YLD IS IREACT=3                                    !# LINE 203 RCT
      IF(IREACT.EQ.3) THEN                                     !# LINE 204 RCT
        ALLOCATE(YLD(NCOMP-1),STAT=IERR)                       !# LINE 205 RCT
        IF(IERR.NE.0) THEN                                     !# LINE 206 RCT
          WRITE(*,108)                                         !# LINE 207 RCT
  108     FORMAT(1X,'YLD: MEMORY ALLOCATION ERROR')            !# LINE 208 RCT
          CALL USTOP(' ')                                      !# LINE 209 RCT
        ENDIF                                                  !# LINE 210 RCT
      ENDIF                                                    !# LINE 211 RCT
C                                                              !# LINE 212 RCT
C--ALLOCATE SP1IM                                              !# LINE 213 RCT
      IF(ISP1IM.GE.1) THEN                                     !# LINE 214 RCT
        ALLOCATE(SP1IM(NCOL,NROW,NLAY,NCOMP),STAT=IERR)        !# LINE 215 RCT
        IF(IERR.NE.0) THEN                                     !# LINE 216 RCT
          WRITE(*,109)                                         !# LINE 217 RCT
  109     FORMAT(1X,'SP1IM MEMORY ALLOCATION ERROR')           !# LINE 218 RCT
          CALL USTOP(' ')                                      !# LINE 219 RCT
        ENDIF                                                  !# LINE 220 RCT
      ENDIF                                                    !# LINE 222 RCT
C                                                              !# LINE 223 RCT
      IF(ISOTHM.NE.5.AND.ISOTHM.NE.6) THEN
        IF(ICIMDRY.GE.2) THEN
          ICIMDRY=0
          WRITE(IOUT,*) ' ICIMDRY ONLY ACTIVE WITH DUAL-DOMAIN'
          WRITE(IOUT,*) ' ICIMDRY RESET TO 0'
        ENDIF
      ENDIF

CLANGEVIN--NEED TO OPEN UCN2 FILES HERE INSTEAD OF IN BTN5AR
      IF(SAVUCN) THEN
        IF(ISOTHM.GT.0) THEN
          WRITE(IOUT,2046) IUCN2+1
          FLNAME='MT3DnnnS.UCN'
          DO INDEX=1,NCOMP
            WRITE(FLNAME(5:7),'(I3.3)') INDEX
            CALL OPENFL(-(IUCN2+INDEX),0,FLNAME,1,FINDEX)
          ENDDO
        ENDIF
      ENDIF
 2046 FORMAT(1X,'SAVE SORBED/IMMOBILE PHASE CONCENTRATIONS ',
     & 'IN UNFORMATTED FILES [MT3DnnnS.UCN]'/1X,' FOR EACH SPECIES ',
     & 'ON UNITS ',I3,' AND ABOVE, ',
     & 'IF SORPTION/MASS TRANSFER SIMULATED')

C
C--PRINT A HEADER
      WRITE(IOUT,2001)
 2001 FORMAT(//1X,'SORPTION AND 1ST/0TH ORDER REACTION PARAMETERS',
     & /1X,46('-')/)
C
C--CALL RARRAY TO READ IN SORPTION PARAMETERS IF SORPTION SIMULATED
      IF(ISOTHM.LE.0 .AND. IREACTION.NE.2) GOTO 2000           !# Amended
C
      IF(ISOTHM.EQ.5 .AND. IREACTION.NE.2) GOTO 111            !# Amended
      ANAME='BULK DENSITY (RHOB)    '
      IF(IRCTOP.EQ.2) THEN
        DO K=1,NLAY
          CALL RARRAY(RHOB(1:NCOL,1:NROW,K),ANAME,NROW,NCOL,K,IN,IOUT)
        ENDDO
      ELSEIF(IRCTOP.EQ.1) THEN
        CALL RARRAY(BUFF(1:NCOL,1:NROW,1:NLAY),ANAME,1,NLAY,0,IN,IOUT)
        DO K=1,NLAY
          DO I=1,NROW
            DO J=1,NCOL
              RHOB(J,I,K)=BUFF(1,1,K)
            ENDDO
          ENDDO
        ENDDO
      ENDIF
      IF(ISOTHM.LE.0 .AND. IREACTION.EQ.2) GOTO 2000           !# LINE 309 RCT
  111 CONTINUE
C
      IF(ISOTHM.NE.5.AND.ISOTHM.NE.6) GOTO 222
      ANAME='IMMOBILE DOMAIN POROSITY'
      IF(IRCTOP.EQ.2) THEN
        DO K=1,NLAY
          CALL RARRAY(PRSITY2(1:NCOL,1:NROW,K),ANAME,NROW,NCOL,K,IN,
     &                IOUT)
        ENDDO
      ELSEIF(IRCTOP.EQ.1) THEN
        CALL RARRAY(BUFF(1:NCOL,1:NROW,1:NLAY),ANAME,1,NLAY,0,IN,IOUT)
        DO K=1,NLAY
          DO I=1,NROW
            DO J=1,NCOL
              PRSITY2(J,I,K)=BUFF(1,1,K)
            ENDDO
          ENDDO
        ENDDO
      ENDIF
  222 CONTINUE
C
      IF(IGETSC.EQ.0) GOTO 333
      DO INDEX=1,NCOMP
        ANAME='STARTING S/IM.C COMP. NO'
        WRITE(ANAME(22:24),'(I3.2)') INDEX
        IF(IRCTOP.EQ.2) THEN
          DO K=1,NLAY
            CALL RARRAY(SRCONC(1:NCOL,1:NROW,K,INDEX),
     &                  ANAME,NROW,NCOL,K,IN,IOUT)
          ENDDO
        ELSEIF(IRCTOP.EQ.1) THEN
          CALL RARRAY(BUFF(1,1,1:NLAY),ANAME,1,NLAY,0,IN,IOUT)
          DO K=1,NLAY
            DO I=1,NROW
              DO J=1,NCOL
                SRCONC(J,I,K,INDEX)=BUFF(1,1,K)
              ENDDO
            ENDDO
          ENDDO
        ENDIF
      ENDDO
  333 CONTINUE
C                                                                       !# LINE 391 RCT
      DO INDEX=1,NCOMP
        ANAME='1ST SORP. COEF. COMP. NO'
        WRITE(ANAME(22:24),'(I3.2)') INDEX
        IF(IRCTOP.EQ.2) THEN
          DO K=1,NLAY
            CALL RARRAY(SP1(1:NCOL,1:NROW,K,INDEX),ANAME,NROW,NCOL,
     &                  K,IN,IOUT)
          ENDDO
        ELSEIF(IRCTOP.EQ.1) THEN
          CALL RARRAY(BUFF(1:NCOL,1:NROW,1:NLAY),ANAME,1,NLAY,0,IN,IOUT)
          DO K=1,NLAY
            DO I=1,NROW
              DO J=1,NCOL
                SP1(J,I,K,INDEX)=BUFF(1,1,K)
              ENDDO
            ENDDO
          ENDDO
        ENDIF
      ENDDO
C
C-----IMMOBILE DOMAIN SORPTION COEFFICIENT                              !# LINE 370 RCT
      IF(ISP1IM.GE.1) THEN                                              !# LINE 371 RCT
        DO INDEX=1,NCOMP                                                !# LINE 372 RCT
          ANAME='IMM SORP. COEF. COMP. NO'                              !# LINE 373 RCT
          WRITE(ANAME(22:24),'(I3.2)') INDEX                            !# LINE 374 RCT
          IF(IRCTOP.EQ.2) THEN                                          !# LINE 375 RCT
            DO K=1,NLAY                                                 !# LINE 376 RCT
              CALL RARRAY(SP1IM(:,:,K,INDEX),ANAME,NROW,NCOL,K,IN,IOUT) !# LINE 377 RCT
            ENDDO                                                       !# LINE 378 RCT
          ELSEIF(IRCTOP.EQ.1) THEN                                      !# LINE 379 RCT
            CALL RARRAY(BUFF,ANAME,1,NLAY,0,IN,IOUT)                    !# LINE 380 RCT
            DO K=1,NLAY                                                 !# LINE 381 RCT
              DO I=1,NROW                                               !# LINE 382 RCT
                DO J=1,NCOL                                             !# LINE 383 RCT
                  SP1IM(J,I,K,INDEX)=BUFF(1,1,K)                        !# LINE 384 RCT
                ENDDO                                                   !# LINE 385 RCT
              ENDDO                                                     !# LINE 386 RCT
            ENDDO                                                       !# LINE 387 RCT
          ENDIF                                                         !# LINE 388 RCT
        ENDDO                                                           !# LINE 389 RCT
      ENDIF                                                             !# LINE 390 RCT
C
      DO INDEX=1,NCOMP
        ANAME='2ND SORP. COEF. COMP. NO'
        WRITE(ANAME(22:24),'(I3.2)') INDEX
        IF(IRCTOP.EQ.2) THEN
          DO K=1,NLAY
            CALL RARRAY(SP2(1:NCOL,1:NROW,K,INDEX),ANAME,NROW,NCOL,
     &                  K,IN,IOUT)
          ENDDO
        ELSEIF(IRCTOP.EQ.1) THEN
          CALL RARRAY(BUFF(1:NCOL,1:NROW,1:NLAY),ANAME,1,NLAY,0,IN,IOUT)
            DO K=1,NLAY
            DO I=1,NROW
              DO J=1,NCOL
                SP2(J,I,K,INDEX)=BUFF(1,1,K)
              ENDDO
            ENDDO
          ENDDO
        ENDIF
      ENDDO
C
C--ENSURE NO SORPTION (SP1=0) IF ISOTHM=5
C--(ISOTHM=5 IS EQUIVALENT TO ISOTHM=6 WITH SP1=0)
      IF(ISOTHM.EQ.5) THEN
        DO INDEX=1,NCOMP
          DO K=1,NLAY
            DO I=1,NROW
              DO J=1,NCOL
                SP1(J,I,K,INDEX)=0.0
                IF(ISP1IM.GE.1) SP1IM(J,I,K,INDEX)=0.0         !# LINE 419 RCT
              ENDDO
            ENDDO
          ENDDO
        ENDDO
      ENDIF
C
C--PRESET FRACTION OF SORPTION SITES IN CONTACT WITH MOBILE WATER
C--TO RATIO OF MOBILE TO TOTAL POROSITIES
      IF(ISOTHM.EQ.6) THEN
        DO K=1,NLAY
          DO I=1,NROW
            DO J=1,NCOL
              FRAC(J,I,K)=1.0
              TOTPOR=PRSITY(J,I,K)+PRSITY2(J,I,K)
              IF(TOTPOR.GT.TINY) FRAC(J,I,K)=PRSITY(J,I,K)/TOTPOR
            ENDDO
          ENDDO
        ENDDO
      ENDIF
C
 2000 CONTINUE
C
C--CALL RARRAY TO READ IN 1st/0th ORDER REACTION RATE CONSTANTS
C--IF NECESSARY
      IF(IREACT.ne.1.and.IREACT.ne.100.and.IREACT.ne.2.and.    !# Amended (LINE 444 RCT)
     1   IREACT.ne.3) GOTO 3000                                !# Amended (LINE 445 RCT)
C
      DO INDEX=1,NCOMP
        ANAME='SOLUTE RXN RATE: COMP NO'
        IF(IREACT.EQ.2) ANAME='Mt * Umax      : COMP NO'       !# LINE 449 RCT
        WRITE(ANAME(22:24),'(I3.2)') INDEX
        IF(IRCTOP.EQ.2) THEN
          DO K=1,NLAY
            CALL RARRAY(RC1(1:NCOL,1:NROW,K,INDEX),ANAME,NROW,NCOL,
     &                  K,IN,IOUT)
          ENDDO
        ELSEIF(IRCTOP.EQ.1) THEN
          CALL RARRAY(BUFF(1,1,1:NLAY),ANAME,1,NLAY,0,IN,IOUT)
          DO K=1,NLAY
            DO I=1,NROW
              DO J=1,NCOL
                RC1(J,I,K,INDEX)=BUFF(1,1,K)
              ENDDO
            ENDDO
          ENDDO
        ENDIF
      ENDDO
C
      DO INDEX=1,NCOMP
        ANAME='SORBED RXN RATE: COMP NO'
        WRITE(ANAME(22:24),'(I3.2)') INDEX
        IF(IRCTOP.EQ.2) THEN
          DO K=1,NLAY
            CALL RARRAY(RC2(1:NCOL,1:NROW,K,INDEX),ANAME,NROW,NCOL,
     &                  K,IN,IOUT)
          ENDDO
        ELSEIF(IRCTOP.EQ.1) THEN
          CALL RARRAY(BUFF(1,1,1:NLAY),ANAME,1,NLAY,0,IN,IOUT)
          DO K=1,NLAY
            DO I=1,NROW
              DO J=1,NCOL
                RC2(J,I,K,INDEX)=BUFF(1,1,K)
              ENDDO
            ENDDO
          ENDDO
        ENDIF
      ENDDO
C
      IF(IREACT.EQ.2) THEN                                          !# LINE 486 RCT
        DO INDEX=1,NCOMP                                            !# LINE 487 RCT
          ANAME='HALF-SAT. CONST: COMP NO'                          !# LINE 488 RCT
          WRITE(ANAME(22:24),'(I3.2)') INDEX                        !# LINE 489 RCT
          IF(IRCTOP.EQ.2) THEN                                      !# LINE 490 RCT
            DO K=1,NLAY                                             !# LINE 491 RCT
              CALL RARRAY(RC3(:,:,K,INDEX),ANAME,NROW,NCOL,K,IN,IOUT) !# LINE 492 RCT
            ENDDO                                                   !# LINE 493 RCT
          ELSEIF(IRCTOP.EQ.1) THEN                                  !# LINE 494 RCT
            CALL RARRAY(BUFF,ANAME,1,NLAY,0,IN,IOUT)                !# LINE 495 RCT
            DO K=1,NLAY                                             !# LINE 496 RCT
              DO I=1,NROW                                           !# LINE 497 RCT
                DO J=1,NCOL                                         !# LINE 498 RCT
                  RC3(J,I,K,INDEX)=BUFF(1,1,K)                      !# LINE 499 RCT
                ENDDO                                               !# LINE 500 RCT
              ENDDO                                                 !# LINE 501 RCT
            ENDDO                                                   !# LINE 502 RCT
          ENDIF                                                     !# LINE 503 RCT
        ENDDO                                                       !# LINE 504 RCT
      ENDIF                                                         !# LINE 505 RCT
C                                                                   !# LINE 506 RCT
      IF(IREACT.EQ.3) THEN                                          !# LINE 507 RCT
        DO INDEX=1,NCOMP-1                                          !# LINE 508 RCT
          READ(IN,*) YLD(INDEX)                                     !# LINE 509 RCT
          WRITE(IOUT,'(18X,2(A,I3),A,G13.6)')                       !# LINE 510 RCT
     1      'YIELD COEFFICIENT BETWEEN SPECIES ',INDEX,             !# LINE 511 RCT
     1      ' AND ',INDEX+1,' = ', YLD(INDEX)                       !# LINE 512 RCT
        ENDDO                                                       !# LINE 513 RCT
      ENDIF                                                         !# LINE 514 RCT
C                                                                   !# LINE 515 RCT
 3000 CONTINUE
C
C-----READ REACTION RELATED DATA                                    !# LINE 518 RCT
      IF(IREACTION.EQ.1) THEN                                       !# LINE 519 RCT
        READ(IN,'(2I10,F10.0)') IED,IEA,FEDEA                       !# LINE 520 RCT
        WRITE(IOUT,104) IED,IEA,FEDEA                               !# LINE 521 RCT
104     FORMAT(1X,'SIMULATED REACTION: ED + FEDEA*EA --> PRODUCT'   !# LINE 522 RCT
     1        /1X,'ELECTRON DONOR COMPONENT (IED)         = ',I3    !# LINE 523 RCT
     1        /1X,'ELECTRON ACCEPTOR COMPONENT (IEA)      = ',I3    !# LINE 524 RCT
     1        /1X,'STOICHIOMETRIC RATIO (FEDEA)           = ',G10.4) !# LINE 525 RCT
C.......CHECK FOR POSSIBLE ERRORS                                   !# LINE 526 RCT
        IF(IED.GT.NCOMP .OR. IEA.GT.NCOMP) THEN                     !# LINE 527 RCT
          WRITE(*,*) 'IEA OR IED GREATER THAN NCOMP'                !# LINE 528 RCT
          WRITE(IOUT,*) 'IEA OR IED GREATER THAN NCOMP'             !# LINE 529 RCT
          CALL USTOP(' ')                                           !# LINE 530 RCT
        ENDIF                                                       !# LINE 531 RCT
        IF(IED.EQ.IEA) THEN                                         !# LINE 532 RCT
          WRITE(*,*) 'IEA AND IED CANNOT BE THE SAME NUMBER'        !# LINE 533 RCT
          WRITE(IOUT,*) 'IEA AND IED CANNOT BE THE SAME NUMBER'     !# LINE 534 RCT
          CALL USTOP(' ')                                           !# LINE 535 RCT
        ENDIF                                                       !# LINE 536 RCT
      ELSEIF(IREACTION.EQ.2) THEN                                   !# LINE 537 RCT
C-------READ REACTION FILE NAME                                     !# LINE 538 RCT
        rec_FileName=''                                             !# LINE 539 RCT
        READ(IN,'(A1000)') rec_FileName                              !# LINE 540 RCT
        INQUIRE(FILE=rec_FileName,EXIST=EXISTED)                    !# LINE 541 RCT
        IF(.NOT.EXISTED) THEN                                       !# LINE 542 RCT
          WRITE(*,*) 'FILE ',TRIM(rec_FileName),' DOES NOT ESIST'   !# LINE 543 RCT
          CALL USTOP('  ')                                          !# LINE 544 RCT
        ELSE                                                        !# LINE 545 RCT
          NODES=NLAY*NROW*NCOL                                      !# LINE 546 RCT
          CALL REACTION_PRE(NODES)                                  !# LINE 547 RCT (Modified)
        ENDIF                                                       !# LINE 548 RCT
      ENDIF                                                         !# LINE 569 RCT
C                                                                   !# LINE 570 RCT
C--DETERMINE DEFAULT CONCENTRATION FOR THE NONEQUILIBRIUM PHASE
C--WHICH REPRESENTS SORBED PHASE IN SINGLE-DOMAIN MODEL (ISOTHM=4)
C--OR IMMOBILE-LIQUID PHASE IN DUAL-DOMAIN MODEL (ISOTHM=5 OR 6)
      IF(IGETSC.EQ.0) THEN
        DO INDEX=1,NCOMP
          DO K=1,NLAY
            DO I=1,NROW
              DO J=1,NCOL
                IF(ICBUND(J,I,K,INDEX).EQ.0) CYCLE
                IF(ISOTHM.EQ.4) THEN
                  SRCONC(J,I,K,INDEX)=SP1(J,I,K,INDEX)*COLD(J,I,K,INDEX)
                ELSEIF(ISOTHM.EQ.5.OR.ISOTHM.EQ.6) THEN
                  SRCONC(J,I,K,INDEX)=0.
                ENDIF
              ENDDO
            ENDDO
          ENDDO
        ENDDO
      ENDIF
C
C--CALL [SRCT5R] TO CALCULATE RETARDATION FACTORS FOR BOTH DOMAINS
C--AND SORBED CONCENTRATION (SINGLE-DOMAIN MODEL)
C--OR IMMOBILE-LIQUID PHASE CONCENTRATION (DUAL-DOMAIN MODEL)
      IF(ISOTHM.GT.0) THEN
        RFMIN=1.E30
        TR=0.
        DO INDEX=1,NCOMP
          CALL SRCT5R(NCOL,NROW,NLAY,ICBUND(:,:,:,INDEX),PRSITY,
     &     COLD(:,:,:,INDEX),RETA(:,:,:,INDEX),RFMIN,RHOB,
     &     SP1(:,:,:,INDEX),SP2(:,:,:,INDEX),RC1(:,:,:,INDEX),
     &     RC2(:,:,:,INDEX),PRSITY2,RETA2(:,:,:,INDEX),FRAC,
     &     SRCONC(:,:,:,INDEX),ISOTHM,IREACT,TR,INDEX)         !#Amended (LINE 602 RCT)
        ENDDO
      ENDIF
C
C--CALCULATE SETPSIZE WHICH MEETS STABILITY CRITERION
C--OF 1ST ORDER REACTION TERM IF AN EXPLICIT SOLUTION SCHEME IS USED
      DTRCT=1.E30
      KR=0
      IR=0
      JR=0
      IF(IREACT.ne.1.AND.ISOTHM.LE.3) GOTO 4000
C
      DO INDEX=1,NCOMP
        DO K=1,NLAY
          DO I=1,NROW
            DO J=1,NCOL
              IF(ICBUND(J,I,K,INDEX).GT.0) THEN
                TR=0.
                IF(IREACT.eq.1) TR=ABS(RC1(J,I,K,INDEX))
                IF(IREACT.eq.1.AND.ISOTHM.GT.0)
     &                     TR=TR+ABS(RC2(J,I,K,INDEX))
                IF(ISOTHM.GT.4) THEN
                  TR=TR+ABS(SP2(J,I,K,INDEX))/PRSITY(J,I,K)
                ENDIF
                IF(TR.GT.TINY) TR=1./TR
                IF(TR.GT.TINY.AND.TR.LT.DTRCT) THEN
                  DTRCT=TR
                  KR=K     
                  IR=I
                  JR=J
                ENDIF
              ENDIF
            ENDDO
          ENDDO
        ENDDO
      ENDDO
C
C--PRINT OUT INFORMATION ON DTRCT
      WRITE(IOUT,3050) DTRCT,KR,IR,JR
 3050 FORMAT(/1X,'MAXIMUM STEPSIZE WHICH MEETS STABILITY CRITERION',
     & ' OF THE REACTION TERM'/1X,'=',G11.4,
     & ' AT K=',I4,', I=',I4,', J=',I4)
C
C--PRINT OUT RETARDATION FACTOR IF REQUESTED
 4000 IF(IFMTRF.EQ.0) GOTO 5000
C
      DO INDEX=1,NCOMP
        ANAME='RETARD. FACTOR: COMP. NO'
        WRITE(ANAME(22:24),'(I3.2)') INDEX
        DO K=1,NLAY
          CALL RPRINT(RETA(1:NCOL,1:NROW,K,INDEX),
     &     ANAME,0,1,1,NCOL,NROW,K,IFMTRF,IOUT)
        ENDDO
      ENDDO
C
C--RETURN
 5000 RETURN
      END
C
C
      SUBROUTINE SRCT5R(NCOL,NROW,NLAY,ICBUND,PRSITY,CNEW,RETA,RFMIN,
     & RHOB,SP1,SP2,RC1,RC2,PRSITY2,RETA2,FRAC,SRCONC,
     & ISOTHM,IREACT,DTRANS,ICOMP)                             !# LINE 664 RCT
C ********************************************************************
C THIS SUBROUTINE CALCULATES RETARDATION FACTOR AND CONCENTRATION
C OF SORBED (UNIT: MASS/MASS) FOR SINGLE-DOMAIN MODEL OR
C IMMOBILE-LIQUID PHASE (UNIT: MASS/VOLUME) FOR DUAL-DOMAIN MODEL.
C ********************************************************************
C last modified: 10-01-2005
C
      USE       RCTMOD                                         !# LINE 672 RCT
C                                                              !# LINE 673 RCT
      IMPLICIT  NONE
      INTEGER   NCOL,NROW,NLAY,ICBUND,ISOTHM,IREACT,J,I,K,
     &          ICOMP                                          !# LINE 675 RCT
      REAL      PRSITY,CNEW,RETA,RFMIN,RHOB,SP1,SP2,RC1,RC2,
     &          PRSITY2,FRAC,SRCONC,DTRANS,TINY,
     &          RETA2,TERM1,RC1TMP,RC2TMP