# Discretization File created on 2/19/2019 by ModelMuse version 3.10.0.42.
# MT3DMS Benchmark Test Problem #5
# 2D TRANSPORT IN A RADIAL FLOW FIELD
# Upper left corner: (0, 0)
# Lower left corner: (0, -310)
# Upper right corner: (310, 0)
# Lower right corner: (310, -310)
# Grid angle (in degrees counterclockwise): 0
     1    31    31     1     4     2 # NLAY, NROW, NCOL, NPER, ITMUNI, LENUNI
     0 # LAYCB
CONSTANT     1.000000000000E+001  # DELR
CONSTANT     1.000000000000E+001  # DELC
CONSTANT     1.000000000000E+000  # TOP
CONSTANT     0.000000000000E+000  # BOTM, Layer 1
  2.700000000000E+001      1  1.000000000000E+000  SS # PERLEN NSTP TSMULT Ss/tr (Stress period 1)
