# Name File for MODFLOW created on 2/19/2019 by ModelMuse Version 3.10.0.42
LIST             11 ImportedP5.lst REPLACE
DATA(BINARY)      9 ImportedP5.cbc REPLACE
DIS              12 ImportedP5.dis OLD
BAS6             13 ImportedP5.bas OLD
OC               39 ImportedP5.oc OLD
DATA             37 ImportedP5.fhd REPLACE
DATA             38 ImportedP5.fdn REPLACE
SIP              35 ImportedP5.sip OLD
BCF6             64 ImportedP5.bcf OLD
LMT6            135 ImportedP5.lmt OLD
DATA(BINARY)    136 ImportedP5.ftl REPLACE
CHD              17 ImportedP5.chd OLD
WEL              20 ImportedP5.wel OLD
