# MODFLOW-NWT Discretization File
 1  1  2  1  4  0
 0
         0    50.000(10E12.4)                    0     DELTA-X or C
         0    50.000(10E12.4)                    0     DELTA-Y or R
         0   100.000(10e12.4)                   -1     TOP of Model
         00.0000e+00(10e12.4)                   -1     BOTTOM of Layer   1
  10.000000  1  1.200000  SS
