# Name File for MODFLOW created on 2/19/2019 by ModelMuse Version 3.10.0.42
LIST             11    ImportedP4.lst
DIS              12    ImportedP4.dis
BAS6             13    ImportedP4.bas
OC               39    ImportedP4.oc 
SIP              35    ImportedP4.sip
BCF6             64    ImportedP4.bcf
CHD              17    ImportedP4.chd
WEL              20    ImportedP4.wel
LMT6            135    ImportedP4.lmt
DATA             37    ImportedP4.fhd
DATA             38    ImportedP4.fdn
DATA(BINARY)    136    ImportedP4.ftl
DATA(BINARY)      9    ImportedP4.cbc
