# Name File for MODFLOW created on 2/19/2019 by ModelMuse Version 3.10.0.42
BEGIN OPTIONS
  LIST         ImportedP2_nonlinear.lst
  PRINT_INPUT
  SAVE_FLOWS
END OPTIONS

BEGIN PACKAGES
  DIS6         ImportedP2_nonlinear.dis
  IC6          ImportedP2_nonlinear.ic
  NPF6         ImportedP2_nonlinear.npf
  OC6          ImportedP2_nonlinear.oc
  CHD6         ImportedP2_nonlinear.chd
END PACKAGES
