# Name File for MT3DMS created on 2/19/2019 by ModelMuse
LIST             16    ImportedP2_nonlinear.mls
FT6              10    ImportedP2_nonlinear.bhd
FT6              22    ImportedP2_nonlinear.cbc
FT6              23    ImportedP2_nonlinear.dis.grb
BTN               1    ImportedP2_nonlinear.btn
ADV               2    ImportedP2_nonlinear.adv
DSP               3    ImportedP2_nonlinear.dsp
SSM               4    ImportedP2_nonlinear.ssm
RCT               8    ImportedP2_nonlinear.rct
GCG               9    ImportedP2_nonlinear.gcg
DATA             17    ImportedP2_nonlinear.cnf
DATA(BINARY)    201    ImportedP2_nonlinear_Comp1.ucn
DATA(BINARY)    301    ImportedP2_nonlinear_Comp1_S.ucn
DATA            601    ImportedP2_nonlinear_Comp1._mas
DATA            401    ImportedP2_nonlinear_Comp1.mto
