MT3DMS Benchmark Test Problem #2
1D advection-dispersion with nonlinear sorption
         1         1       101         2         1         1         0 # Data Set 3: NLAY NROW NCOL NPER NCOMP MCOMP, IATS
 sec  cm   g # Data Set 4: TUNIT LUNIT MUNIT

 0 # Data Set 6: LAYCON
       103        1.                            12 # DELR
  1.600000000000E-001   1.600000000000E-001   1.600000000000E-001   1.600000000000E-001   1.600000000000E-001   1.600000000000E-001   1.600000000000E-001   1.600000000000E-001   1.600000000000E-001   1.600000000000E-001 
  1.600000000000E-001   1.600000000000E-001   1.600000000000E-001   1.600000000000E-001   1.600000000000E-001   1.600000000000E-001   1.600000000000E-001   1.600000000000E-001   1.600000000000E-001   1.600000000000E-001 
  1.600000000000E-001   1.600000000000E-001   1.600000000000E-001   1.600000000000E-001   1.600000000000E-001   1.600000000000E-001   1.600000000000E-001   1.600000000000E-001   1.600000000000E-001   1.600000000000E-001 
  1.600000000000E-001   1.600000000000E-001   1.600000000000E-001   1.600000000000E-001   1.600000000000E-001   1.600000000000E-001   1.600000000000E-001   1.600000000000E-001   1.600000000000E-001   1.600000000000E-001 
  1.600000000000E-001   1.600000000000E-001   1.600000000000E-001   1.600000000000E-001   1.600000000000E-001   1.600000000000E-001   1.600000000000E-001   1.600000000000E-001   1.600000000000E-001   1.600000000000E-001 
  1.600000000000E-001   1.600000000000E-001   1.600000000000E-001   1.600000000000E-001   1.600000000000E-001   1.600000000000E-001   1.600000000000E-001   1.600000000000E-001   1.600000000000E-001   1.600000000000E-001 
  1.600000000000E-001   1.600000000000E-001   1.600000000000E-001   1.600000000000E-001   1.600000000000E-001   1.600000000000E-001   1.600000000000E-001   1.600000000000E-001   1.600000000000E-001   1.600000000000E-001 
  1.600000000000E-001   1.600000000000E-001   1.600000000000E-001   1.600000000000E-001   1.600000000000E-001   1.600000000000E-001   1.600000000000E-001   1.600000000000E-001   1.600000000000E-001   1.600000000000E-001 
  1.600000000000E-001   1.600000000000E-001   1.600000000000E-001   1.600000000000E-001   1.600000000000E-001   1.600000000000E-001   1.600000000000E-001   1.600000000000E-001   1.600000000000E-001   1.600000000000E-001 
  1.600000000000E-001   1.600000000000E-001   1.600000000000E-001   1.600000000000E-001   1.600000000000E-001   1.600000000000E-001   1.600000000000E-001   1.600000000000E-001   1.600000000000E-001   1.600000000000E-001 
  1.600000000000E-001 
         0         1                            12 # DELC
         0         1                            12 # TOP
         0         1                            12 # Data Set 10: DZ Layer: 1
         0      0.37                            12 # Data Set 11: PRSITY, Layer: 1
         0         1                             5 # Data Set 12: ICBUND, Layer: 1
         0         0                            12 # Data Set 13: SCONC: Comp1, Layer: 1
   -999.99         0 # Data Set 14: CINACT, THKMIN
        12         5        12        12         T # Data set 15: IFMTCN IFMTNP IFMTRF IFMTDP SAVUCN
         0 # Data Set 16, NPRS
         1        10 # Data set 18, NOBS NPROBS
         1         1        51
         T        10 # Data Set 20: CHKMAS NPRMAS
       160         1         1 # Data Set 21: PERLEN NSTP TSMULT SSflag (Stress period 1)
         0     15000         1        10 # Data Set 23: DT0, MXSTRN, TTSMULT, TTSMAX
      1320         1         1 # Data Set 21: PERLEN NSTP TSMULT SSflag (Stress period 2)
         0     15000         1        10 # Data Set 23: DT0, MXSTRN, TTSMULT, TTSMAX
