# Name File for MODFLOW created on 2/19/2019 by ModelMuse Version 3.10.0.42
LIST             11    ImportedP2_nonlinear.lst
DIS              12    ImportedP2_nonlinear.dis
BAS6             13    ImportedP2_nonlinear.bas
OC               39    ImportedP2_nonlinear.oc 
SIP              35    ImportedP2_nonlinear.sip
BCF6             64    ImportedP2_nonlinear.bcf
CHD              17    ImportedP2_nonlinear.chd
LMT6            135    ImportedP2_nonlinear.lmt
DATA(BINARY)    136    ImportedP2_nonlinear.ftl
DATA(BINARY)      9    ImportedP2_nonlinear.cbc
DATA             37    ImportedP2_nonlinear.fhd
DATA             38    ImportedP2_nonlinear.fdn
