# Discretization File created on 2/19/2019 by ModelMuse version 3.10.0.42.
# MT3DMS Benchmark Test Problem #2
# Based on GROVE & STOLLENWERK (1984)
# Upper left corner: (0, 0)
# Lower left corner: (0, -1)
# Upper right corner: (16.16, 0)
# Lower right corner: (16.16, -1)
# Grid angle (in degrees counterclockwise): 0
     1     1   101     3     1     3 # NLAY, NROW, NCOL, NPER, ITMUNI, LENUNI
     0 # LAYCB
INTERNAL 1.0 (FREE)       12 # DELR
  1.600000000000E-001   1.600000000000E-001   1.600000000000E-001   1.600000000000E-001   1.600000000000E-001   1.600000000000E-001   1.600000000000E-001   1.600000000000E-001   1.600000000000E-001   1.600000000000E-001 
  1.600000000000E-001   1.600000000000E-001   1.600000000000E-001   1.600000000000E-001   1.600000000000E-001   1.600000000000E-001   1.600000000000E-001   1.600000000000E-001   1.600000000000E-001   1.600000000000E-001 
  1.600000000000E-001   1.600000000000E-001   1.600000000000E-001   1.600000000000E-001   1.600000000000E-001   1.600000000000E-001   1.600000000000E-001   1.600000000000E-001   1.600000000000E-001   1.600000000000E-001 
  1.600000000000E-001   1.600000000000E-001   1.600000000000E-001   1.600000000000E-001   1.600000000000E-001   1.600000000000E-001   1.600000000000E-001   1.600000000000E-001   1.600000000000E-001   1.600000000000E-001 
  1.600000000000E-001   1.600000000000E-001   1.600000000000E-001   1.600000000000E-001   1.600000000000E-001   1.600000000000E-001   1.600000000000E-001   1.600000000000E-001   1.600000000000E-001   1.600000000000E-001 
  1.600000000000E-001   1.600000000000E-001   1.600000000000E-001   1.600000000000E-001   1.600000000000E-001   1.600000000000E-001   1.600000000000E-001   1.600000000000E-001   1.600000000000E-001   1.600000000000E-001 
  1.600000000000E-001   1.600000000000E-001   1.600000000000E-001   1.600000000000E-001   1.600000000000E-001   1.600000000000E-001   1.600000000000E-001   1.600000000000E-001   1.600000000000E-001   1.600000000000E-001 
  1.600000000000E-001   1.600000000000E-001   1.600000000000E-001   1.600000000000E-001   1.600000000000E-001   1.600000000000E-001   1.600000000000E-001   1.600000000000E-001   1.600000000000E-001   1.600000000000E-001 
  1.600000000000E-001   1.600000000000E-001   1.600000000000E-001   1.600000000000E-001   1.600000000000E-001   1.600000000000E-001   1.600000000000E-001   1.600000000000E-001   1.600000000000E-001   1.600000000000E-001 
  1.600000000000E-001   1.600000000000E-001   1.600000000000E-001   1.600000000000E-001   1.600000000000E-001   1.600000000000E-001   1.600000000000E-001   1.600000000000E-001   1.600000000000E-001   1.600000000000E-001 
  1.600000000000E-001 
CONSTANT     1.000000000000E+000  # DELC
CONSTANT     1.000000000000E+000  # TOP
CONSTANT     0.000000000000E+000  # BOTM, Layer 1
  1.600000000000E+002      1  1.000000000000E+000  SS # PERLEN NSTP TSMULT Ss/tr (Stress period 1)
  3.200000000000E+002      1  1.000000000000E+000  SS # PERLEN NSTP TSMULT Ss/tr (Stress period 2)
  1.520000000000E+003      1  1.000000000000E+000  SS # PERLEN NSTP TSMULT Ss/tr (Stress period 3)
