# Discretization File created on 5/14/2019 by ModelMuse version 3.10.0.56.
# MT3DMS Benchmark Test Problem #2
# Based on GROVE & STOLLENWERK (1984)
# Upper left corner: (0, 0)
# Lower left corner: (0, -1)
# Upper right corner: (16.16, 0)
# Lower right corner: (16.16, -1)
# Grid angle (in degrees counterclockwise): 0
# NLAY  NROW  NCOL  NPER  ITMUNI  LENUNI
     1     1   101     2       1       3 
     0                                        # LAYCB
INTERNAL 1.0 (FREE)       12                  # DELR
  1.600000000000E-001   1.600000000000E-001   1.600000000000E-001   1.600000000000E-001   1.600000000000E-001   1.600000000000E-001   1.600000000000E-001   1.600000000000E-001   1.600000000000E-001   1.600000000000E-001 
  1.600000000000E-001   1.600000000000E-001   1.600000000000E-001   1.600000000000E-001   1.600000000000E-001   1.600000000000E-001   1.600000000000E-001   1.600000000000E-001   1.600000000000E-001   1.600000000000E-001 
  1.600000000000E-001   1.600000000000E-001   1.600000000000E-001   1.600000000000E-001   1.600000000000E-001   1.600000000000E-001   1.600000000000E-001   1.600000000000E-001   1.600000000000E-001   1.600000000000E-001 
  1.600000000000E-001   1.600000000000E-001   1.600000000000E-001   1.600000000000E-001   1.600000000000E-001   1.600000000000E-001   1.600000000000E-001   1.600000000000E-001   1.600000000000E-001   1.600000000000E-001 
  1.600000000000E-001   1.600000000000E-001   1.600000000000E-001   1.600000000000E-001   1.600000000000E-001   1.600000000000E-001   1.600000000000E-001   1.600000000000E-001   1.600000000000E-001   1.600000000000E-001 
  1.600000000000E-001   1.600000000000E-001   1.600000000000E-001   1.600000000000E-001   1.600000000000E-001   1.600000000000E-001   1.600000000000E-001   1.600000000000E-001   1.600000000000E-001   1.600000000000E-001 
  1.600000000000E-001   1.600000000000E-001   1.600000000000E-001   1.600000000000E-001   1.600000000000E-001   1.600000000000E-001   1.600000000000E-001   1.600000000000E-001   1.600000000000E-001   1.600000000000E-001 
  1.600000000000E-001   1.600000000000E-001   1.600000000000E-001   1.600000000000E-001   1.600000000000E-001   1.600000000000E-001   1.600000000000E-001   1.600000000000E-001   1.600000000000E-001   1.600000000000E-001 
  1.600000000000E-001   1.600000000000E-001   1.600000000000E-001   1.600000000000E-001   1.600000000000E-001   1.600000000000E-001   1.600000000000E-001   1.600000000000E-001   1.600000000000E-001   1.600000000000E-001 
  1.600000000000E-001   1.600000000000E-001   1.600000000000E-001   1.600000000000E-001   1.600000000000E-001   1.600000000000E-001   1.600000000000E-001   1.600000000000E-001   1.600000000000E-001   1.600000000000E-001 
  1.600000000000E-001 
CONSTANT     1.00                             # DELC
CONSTANT     1.0                              # TOP
CONSTANT     0.0                              # BOTM, Layer 1
  1.600E+002      1  1.00       SS            # PERLEN NSTP TSMULT Ss/tr (Stress period 1)
  1.320E+003      1  1.00       SS            # PERLEN NSTP TSMULT Ss/tr (Stress period 2)
