# Discretization File created on 2/19/2019 by ModelMuse version 3.10.0.42.
# MT3DMS Benchmark Test Problem #1
# 1D UNIFORM FLOW FIELD
# Upper left corner: (0, 0)
# Lower left corner: (0, -1)
# Upper right corner: (1010, 0)
# Lower right corner: (1010, -1)
# Grid angle (in degrees counterclockwise): 0
     1     1   101     1     4     2 # NLAY, NROW, NCOL, NPER, ITMUNI, LENUNI
     0 # LAYCB
CONSTANT     1.000000000000E+001  # DELR
CONSTANT     1.000000000000E+000  # DELC
CONSTANT     1.000000000000E+000  # TOP
CONSTANT     0.000000000000E+000  # BOTM, Layer 1
  2.000000000000E+003      1  1.000000000000E+000  SS # PERLEN NSTP TSMULT Ss/tr (Stress period 1)
