# Name File for MODFLOW created on 2/19/2019 by ModelMuse Version 3.10.0.42
LIST             11   ImportedP1_Case1d.lst    REPLACE
DATA(BINARY)      9   ImportedP1_Case1d.cbc    REPLACE
DIS              12   ImportedP1_Case1d.dis    OLD
BAS6             13   ImportedP1_Case1d.bas    OLD
OC               39   ImportedP1_Case1d.oc     OLD
DATA             37   ImportedP1_Case1d.fhd    REPLACE
DATA             38   ImportedP1_Case1d.fdn    REPLACE
PCG              18   ImportedP1_Case1d.pcg    OLD
BCF6             64   ImportedP1_Case1d.bcf    OLD
LMT6            135   ImportedP1_Case1d.lmt    OLD
DATA(BINARY)    136   ImportedP1_Case1d.ftl    REPLACE
CHD              17   ImportedP1_Case1d.chd    OLD
