# MODFLOW2000 - Link-MT3DMS Package Input File
OUTPUT_FILE_NAME       gv131.ftl
OUTPUT_FILE_UNIT       13
OUTPUT_FILE_HEADER     Extended
OUTPUT_FILE_FORMAT     Unformatted
