# MODFLOW2000 Discretization File
 16  1  150  1  4  0
 0 0 0 0 0 0 0 0 0 0 0 0 0 0 0 0
         0  10.00000(10E12.4)                    0     DELTA-X or C
         0   1.00000(10E12.4)                    0     DELTA-Y or R
         0  300.0000(10e12.4)                   -1     TOP of Model
         0  275.0000(10e12.4)                   -1     BOTTOM of Layer   1
         0  250.0000(10e12.4)                   -1     BOTTOM of Layer   2
         0  225.0000(10e12.4)                   -1     BOTTOM of Layer   3
         0  200.0000(10e12.4)                   -1     BOTTOM of Layer   4
         0  175.0000(10e12.4)                   -1     BOTTOM of Layer   5
         0  150.0000(10e12.4)                   -1     BOTTOM of Layer   6
         0  125.0000(10e12.4)                   -1     BOTTOM of Layer   7
         0  100.0000(10e12.4)                   -1     BOTTOM of Layer   8
         0  75.00000(10e12.4)                   -1     BOTTOM of Layer   9
         0  50.00000(10e12.4)                   -1     BOTTOM of Layer  10
         0  25.00000(10e12.4)                   -1     BOTTOM of Layer  11
         00.0000e+00(10e12.4)                   -1     BOTTOM of Layer  12
         0 -25.00000(10e12.4)                   -1     BOTTOM of Layer  13
         0 -50.00000(10e12.4)                   -1     BOTTOM of Layer  14
         0 -75.00000(10e12.4)                   -1     BOTTOM of Layer  15
         0 -100.0000(10e12.4)                   -1     BOTTOM of Layer  16
  7305.000000  1  1.200000  SS
