# MODFLOW2000 Layer Property Flow (LPF) Package
        50  -1.000000e+030         0
  1  3  3  3  3  3  3  3  3  3  3  3  3  3  3  3
  0  0  0  0  0  0  0  0  0  0  0  0  0  0  0  0
  1.000000e+000  1.000000e+000  1.000000e+000  1.000000e+000  1.000000e+000  1.000000e+000  1.000000e+000  1.000000e+000  1.000000e+000  1.000000e+000  1.000000e+000  1.000000e+000  1.000000e+000  1.000000e+000  1.000000e+000  1.000000e+000
 0 0 0 0 0 0 0 0 0 0 0 0 0 0 0 0
 0 0 0 0 0 0 0 0 0 0 0 0 0 0 0 0
        11   1.00000(10e12.4)                   -1     HYDRAULIC CONDUCTIVITY Layer   1
  2.8350e+01  2.8350e+01  2.8350e+01  2.8350e+01  2.8350e+01  2.8350e+01  2.8350e+01  2.8350e+01  2.8350e+01  2.8350e+01
  2.8350e+01  2.8350e+01  2.8350e+01  2.8350e+01  2.8350e+01  2.8350e+01  2.8350e+01  2.8350e+01  2.8350e+01  2.8350e+01
  2.8350e+01  2.8350e+01  2.8350e+01  2.8350e+01  2.8350e+01  2.8350e+01  2.8350e+01  2.8350e+01  2.8350e+01  2.8350e+01
  2.8350e+01  2.8350e+01  2.8350e+01  2.8350e+01  2.8350e+01  2.8350e+01  2.8350e+01  2.8350e+01  2.8350e+01  2.8350e+01
  2.8350e+01  2.8350e+01  2.8350e+01  2.8350e+01  2.8350e+01  2.8350e+01  2.8350e+01  2.8350e+01  2.8350e+01  2.8350e+01
  2.8350e+01  2.8350e+01  2.8350e+01  2.8350e+01  2.8350e+01  2.8350e+01  2.8350e+01  2.8350e+01  2.8350e+01  2.8350e+01
  2.8350e+01  2.8350e+01  2.8350e+01  2.8350e+01  2.8350e+01  2.8350e+01  2.8350e+01  2.8350e+01  2.8350e+01  2.8350e+01
  2.8350e+01  2.8350e+01  2.8350e+01  2.8350e+01  2.8350e+01  2.8350e+01  2.8350e+01  2.8350e+01  2.8350e+01  2.8350e+01
  2.8350e+01  2.8350e+01  2.8350e+01  2.8350e+01  2.8350e+01  2.8350e+01  2.8350e+01  2.8350e+01  2.8350e+01  2.8350e+01
  2.8350e+01  2.8350e+01  2.8350e+01  2.8350e+01  2.8350e+01  2.8350e+01  2.8350e+01  2.8350e+01  2.8350e+01  2.8350e+01
  2.8350e+01  2.8350e+01  2.8350e+01  2.8350e+01  2.8350e+01  2.8350e+01  2.8350e+01  2.8350e+01  2.8350e+01  2.8350e+01
  2.8350e+01  2.8350e+01  2.8350e+01  2.8350e+01  2.8350e+01  2.8350e+01  2.8350e+01  2.8350e+01  2.8350e+01  2.8350e+01
  2.8350e+01  2.8350e+01  2.8350e+01  2.8350e+01  2.8350e+01  2.8350e+01  2.8350e+01  2.8350e+01  2.8350e+01  2.8350e+01
  2.8350e+01  2.8350e+01  2.8350e+01  2.8350e+01  2.8350e+01  2.8350e+01  2.8350e+01  2.8350e+01  2.8350e+01  2.8350e+01
  2.8350e+01  2.8350e+01  2.8350e+01  2.8350e+01  2.8350e+01  2.8350e+01  2.8350e+01  2.8350e+01  2.8350e+01  2.8350e+01
        11   1.00000(10e12.4)                   -1     VERTICAL HYDRAULIC CONDUCTIVITY Layer   1
  2.8350e+01  2.8350e+01  2.8350e+01  2.8350e+01  2.8350e+01  2.8350e+01  2.8350e+01  2.8350e+01  2.8350e+01  2.8350e+01
  2.8350e+01  2.8350e+01  2.8350e+01  2.8350e+01  2.8350e+01  2.8350e+01  2.8350e+01  2.8350e+01  2.8350e+01  2.8350e+01
  2.8350e+01  2.8350e+01  2.8350e+01  2.8350e+01  2.8350e+01  2.8350e+01  2.8350e+01  2.8350e+01  2.8350e+01  2.8350e+01
  2.8350e+01  2.8350e+01  2.8350e+01  2.8350e+01  2.8350e+01  2.8350e+01  2.8350e+01  2.8350e+01  2.8350e+01  2.8350e+01
  2.8350e+01  2.8350e+01  2.8350e+01  2.8350e+01  2.8350e+01  2.8350e+01  2.8350e+01  2.8350e+01  2.8350e+01  2.8350e+01
  2.8350e+01  2.8350e+01  2.8350e+01  2.8350e+01  2.8350e+01  2.8350e+01  2.8350e+01  2.8350e+01  2.8350e+01  2.8350e+01
  2.8350e+01  2.8350e+01  2.8350e+01  2.8350e+01  2.8350e+01  2.8350e+01  2.8350e+01  2.8350e+01  2.8350e+01  2.8350e+01
  2.8350e+01  2.8350e+01  2.8350e+01  2.8350e+01  2.8350e+01  2.8350e+01  2.8350e+01  2.8350e+01  2.8350e+01  2.8350e+01
  2.8350e+01  2.8350e+01  2.8350e+01  2.8350e+01  2.8350e+01  2.8350e+01  2.8350e+01  2.8350e+01  2.8350e+01  2.8350e+01
  2.8350e+01  2.8350e+01  2.8350e+01  2.8350e+01  2.8350e+01  2.8350e+01  2.8350e+01  2.8350e+01  2.8350e+01  2.8350e+01
  2.8350e+01  2.8350e+01  2.8350e+01  2.8350e+01  2.8350e+01  2.8350e+01  2.8350e+01  2.8350e+01  2.8350e+01  2.8350e+01
  2.8350e+01  2.8350e+01  2.8350e+01  2.8350e+01  2.8350e+01  2.8350e+01  2.8350e+01  2.8350e+01  2.8350e+01  2.8350e+01
  2.8350e+01  2.8350e+01  2.8350e+01  2.8350e+01  2.8350e+01  2.8350e+01  2.8350e+01  2.8350e+01  2.8350e+01  2.8350e+01
  2.8350e+01  2.8350e+01  2.8350e+01  2.8350e+01  2.8350e+01  2.8350e+01  2.8350e+01  2.8350e+01  2.8350e+01  2.8350e+01
  2.8350e+01  2.8350e+01  2.8350e+01  2.8350e+01  2.8350e+01  2.8350e+01  2.8350e+01  2.8350e+01  2.8350e+01  2.8350e+01
        11   1.00000(10e12.4)                   -1     HYDRAULIC CONDUCTIVITY Layer   2
  2.8350e+01  2.8350e+01  2.8350e+01  2.8350e+01  2.8350e+01  2.8350e+01  2.8350e+01  2.8350e+01  2.8350e+01  2.8350e+01
  2.8350e+01  2.8350e+01  2.8350e+01  2.8350e+01  2.8350e+01  2.8350e+01  2.8350e+01  2.8350e+01  2.8350e+01  2.8350e+01
  2.8350e+01  2.8350e+01  2.8350e+01  2.8350e+01  2.8350e+01  2.8350e+01  2.8350e+01  2.8350e+01  2.8350e+01  2.8350e+01
  2.8350e+01  2.8350e+01  2.8350e+01  2.8350e+01  2.8350e+01  2.8350e+01  2.8350e+01  2.8350e+01  2.8350e+01  2.8350e+01
  2.8350e+01  2.8350e+01  2.8350e+01  2.8350e+01  2.8350e+01  2.8350e+01  2.8350e+01  2.8350e+01  2.8350e+01  2.8350e+01
  2.8350e+01  2.8350e+01  2.8350e+01  2.8350e+01  2.8350e+01  2.8350e+01  2.8350e+01  2.8350e+01  2.8350e+01  2.8350e+01
  2.8350e+01  2.8350e+01  2.8350e+01  2.8350e+01  2.8350e+01  2.8350e+01  2.8350e+01  2.8350e+01  2.8350e+01  2.8350e+01
  2.8350e+01  2.8350e+01  2.8350e+01  2.8350e+01  2.8350e+01  2.8350e+01  2.8350e+01  2.8350e+01  2.8350e+01  2.8350e+01
  2.8350e+01  2.8350e+01  2.8350e+01  2.8350e+01  2.8350e+01  2.8350e+01  2.8350e+01  2.8350e+01  2.8350e+01  2.8350e+01
  2.8350e+01  2.8350e+01  2.8350e+01  2.8350e+01  2.8350e+01  2.8350e+01  2.8350e+01  2.8350e+01  2.8350e+01  2.8350e+01
  2.8350e+01  2.8350e+01  2.8350e+01  2.8350e+01  2.8350e+01  2.8350e+01  2.8350e+01  2.8350e+01  2.8350e+01  2.8350e+01
  2.8350e+01  2.8350e+01  2.8350e+01  2.8350e+01  2.8350e+01  2.8350e+01  2.8350e+01  2.8350e+01  2.8350e+01  2.8350e+01
  2.8350e+01  2.8350e+01  2.8350e+01  2.8350e+01  2.8350e+01  2.8350e+01  2.8350e+01  2.8350e+01  2.8350e+01  2.8350e+01
  2.8350e+01  2.8350e+01  2.8350e+01  2.8350e+01  2.8350e+01  2.8350e+01  2.8350e+01  2.8350e+01  2.8350e+01  2.8350e+01
  2.8350e+01  2.8350e+01  2.8350e+01  2.8350e+01  2.8350e+01  2.8350e+01  2.8350e+01  2.8350e+01  2.8350e+01  2.8350e+01
        11   1.00000(10e12.4)                   -1     VERTICAL HYDRAULIC CONDUCTIVITY Layer   2
  2.8350e+01  2.8350e+01  2.8350e+01  2.8350e+01  2.8350e+01  2.8350e+01  2.8350e+01  2.8350e+01  2.8350e+01  2.8350e+01
  2.8350e+01  2.8350e+01  2.8350e+01  2.8350e+01  2.8350e+01  2.8350e+01  2.8350e+01  2.8350e+01  2.8350e+01  2.8350e+01
  2.8350e+01  2.8350e+01  2.8350e+01  2.8350e+01  2.8350e+01  2.8350e+01  2.8350e+01  2.8350e+01  2.8350e+01  2.8350e+01
  2.8350e+01  2.8350e+01  2.8350e+01  2.8350e+01  2.8350e+01  2.8350e+01  2.8350e+01  2.8350e+01  2.8350e+01  2.8350e+01
  2.8350e+01  2.8350e+01  2.8350e+01  2.8350e+01  2.8350e+01  2.8350e+01  2.8350e+01  2.8350e+01  2.8350e+01  2.8350e+01
  2.8350e+01  2.8350e+01  2.8350e+01  2.8350e+01  2.8350e+01  2.8350e+01  2.8350e+01  2.8350e+01  2.8350e+01  2.8350e+01
  2.8350e+01  2.8350e+01  2.8350e+01  2.8350e+01  2.8350e+01  2.8350e+01  2.8350e+01  2.8350e+01  2.8350e+01  2.8350e+01
  2.8350e+01  2.8350e+01  2.8350e+01  2.8350e+01  2.8350e+01  2.8350e+01  2.8350e+01  2.8350e+01  2.8350e+01  2.8350e+01
  2.8350e+01  2.8350e+01  2.8350e+01  2.8350e+01  2.8350e+01  2.8350e+01  2.8350e+01  2.8350e+01  2.8350e+01  2.8350e+01
  2.8350e+01  2.8350e+01  2.8350e+01  2.8350e+01  2.8350e+01  2.8350e+01  2.8350e+01  2.8350e+01  2.8350e+01  2.8350e+01
  2.8350e+01  2.8350e+01  2.8350e+01  2.8350e+01  2.8350e+01  2.8350e+01  2.8350e+01  2.8350e+01  2.8350e+01  2.8350e+01
  2.8350e+01  2.8350e+01  2.8350e+01  2.8350e+01  2.8350e+01  2.8350e+01  2.8350e+01  2.8350e+01  2.8350e+01  2.8350e+01
  2.8350e+01  2.8350e+01  2.8350e+01  2.8350e+01  2.8350e+01  2.8350e+01  2.8350e+01  2.8350e+01  2.8350e+01  2.8350e+01
  2.8350e+01  2.8350e+01  2.8350e+01  2.8350e+01  2.8350e+01  2.8350e+01  2.8350e+01  2.8350e+01  2.8350e+01  2.8350e+01
  2.8350e+01  2.8350e+01  2.8350e+01  2.8350e+01  2.8350e+01  2.8350e+01  2.8350e+01  2.8350e+01  2.8350e+01  2.8350e+01
        11   1.00000(10e12.4)                   -1     HYDRAULIC CONDUCTIVITY Layer   3
  2.8350e+01  2.8350e+01  2.8350e+01  2.8350e+01  2.8350e+01  2.8350e+01  2.8350e+01  2.8350e+01  2.8350e+01  2.8350e+01
  2.8350e+01  2.8350e+01  2.8350e+01  2.8350e+01  2.8350e+01  2.8350e+01  2.8350e+01  2.8350e+01  2.8350e+01  2.8350e+01
  2.8350e+01  2.8350e+01  2.8350e+01  2.8350e+01  2.8350e+01  2.8350e+01  2.8350e+01  2.8350e+01  2.8350e+01  2.8350e+01
  2.8350e+01  2.8350e+01  2.8350e+01  2.8350e+01  2.8350e+01  2.8350e+01  2.8350e+01  2.8350e+01  2.8350e+01  2.8350e+01
  2.8350e+01  2.8350e+01  2.8350e+01  2.8350e+01  2.8350e+01  2.8350e+01  2.8350e+01  2.8350e+01  2.8350e+01  2.8350e+01
  2.8350e+01  2.8350e+01  2.8350e+01  2.8350e+01  2.8350e+01  2.8350e+01  2.8350e+01  2.8350e+01  2.8350e+01  2.8350e+01
  2.8350e+01  2.8350e+01  2.8350e+01  2.8350e+01  2.8350e+01  2.8350e+01  2.8350e+01  2.8350e+01  2.8350e+01  2.8350e+01
  2.8350e+01  2.8350e+01  2.8350e+01  2.8350e+01  2.8350e+01  2.8350e+01  2.8350e+01  2.8350e+01  2.8350e+01  2.8350e+01
  2.8350e+01  2.8350e+01  2.8350e+01  2.8350e+01  2.8350e+01  2.8350e+01  2.8350e+01  2.8350e+01  2.8350e+01  2.8350e+01
  2.8350e+01  2.8350e+01  2.8350e+01  2.8350e+01  2.8350e+01  2.8350e+01  2.8350e+01  2.8350e+01  2.8350e+01  2.8350e+01
  2.8350e+01  2.8350e+01  2.8350e+01  2.8350e+01  2.8350e+01  2.8350e+01  2.8350e+01  2.8350e+01  2.8350e+01  2.8350e+01
  2.8350e+01  2.8350e+01  2.8350e+01  2.8350e+01  2.8350e+01  2.8350e+01  2.8350e+01  2.8350e+01  2.8350e+01  2.8350e+01
  2.8350e+01  2.8350e+01  2.8350e+01  2.8350e+01  2.8350e+01  2.8350e+01  2.8350e+01  2.8350e+01  2.8350e+01  2.8350e+01
  2.8350e+01  2.8350e+01  2.8350e+01  2.8350e+01  2.8350e+01  2.8350e+01  2.8350e+01  2.8350e+01  2.8350e+01  2.8350e+01
  2.8350e+01  2.8350e+01  2.8350e+01  2.8350e+01  2.8350e+01  2.8350e+01  2.8350e+01  2.8350e+01  2.8350e+01  2.8350e+01
        11   1.00000(10e12.4)                   -1     VERTICAL HYDRAULIC CONDUCTIVITY Layer   3
  2.8350e+01  2.8350e+01  2.8350e+01  2.8350e+01  2.8350e+01  2.8350e+01  2.8350e+01  2.8350e+01  2.8350e+01  2.8350e+01
  2.8350e+01  2.8350e+01  2.8350e+01  2.8350e+01  2.8350e+01  2.8350e+01  2.8350e+01  2.8350e+01  2.8350e+01  2.8350e+01
  2.8350e+01  2.8350e+01  2.8350e+01  2.8350e+01  2.8350e+01  2.8350e+01  2.8350e+01  2.8350e+01  2.8350e+01  2.8350e+01
  2.8350e+01  2.8350e+01  2.8350e+01  2.8350e+01  2.8350e+01  2.8350e+01  2.8350e+01  2.8350e+01  2.8350e+01  2.8350e+01
  2.8350e+01  2.8350e+01  2.8350e+01  2.8350e+01  2.8350e+01  2.8350e+01  2.8350e+01  2.8350e+01  2.8350e+01  2.8350e+01
  2.8350e+01  2.8350e+01  2.8350e+01  2.8350e+01  2.8350e+01  2.8350e+01  2.8350e+01  2.8350e+01  2.8350e+01  2.8350e+01
  2.8350e+01  2.8350e+01  2.8350e+01  2.8350e+01  2.8350e+01  2.8350e+01  2.8350e+01  2.8350e+01  2.8350e+01  2.8350e+01
  2.8350e+01  2.8350e+01  2.8350e+01  2.8350e+01  2.8350e+01  2.8350e+01  2.8350e+01  2.8350e+01  2.8350e+01  2.8350e+01
  2.8350e+01  2.8350e+01  2.8350e+01  2.8350e+01  2.8350e+01  2.8350e+01  2.8350e+01  2.8350e+01  2.8350e+01  2.8350e+01
  2.8350e+01  2.8350e+01  2.8350e+01  2.8350e+01  2.8350e+01  2.8350e+01  2.8350e+01  2.8350e+01  2.8350e+01  2.8350e+01
  2.8350e+01  2.8350e+01  2.8350e+01  2.8350e+01  2.8350e+01  2.8350e+01  2.8350e+01  2.8350e+01  2.8350e+01  2.8350e+01
  2.8350e+01  2.8350e+01  2.8350e+01  2.8350e+01  2.8350e+01  2.8350e+01  2.8350e+01  2.8350e+01  2.8350e+01  2.8350e+01
  2.8350e+01  2.8350e+01  2.8350e+01  2.8350e+01  2.8350e+01  2.8350e+01  2.8350e+01  2.8350e+01  2.8350e+01  2.8350e+01
  2.8350e+01  2.8350e+01  2.8350e+01  2.8350e+01  2.8350e+01  2.8350e+01  2.8350e+01  2.8350e+01  2.8350e+01  2.8350e+01
  2.8350e+01  2.8350e+01  2.8350e+01  2.8350e+01  2.8350e+01  2.8350e+01  2.8350e+01  2.8350e+01  2.8350e+01  2.8350e+01
        11   1.00000(10e12.4)                   -1     HYDRAULIC CONDUCTIVITY Layer   4
  2.8350e+01  2.8350e+01  2.8350e+01  2.8350e+01  2.8350e+01  2.8350e+01  2.8350e+01  2.8350e+01  2.8350e+01  2.8350e+01
  2.8350e+01  2.8350e+01  2.8350e+01  2.8350e+01  2.8350e+01  2.8350e+01  2.8350e+01  2.8350e+01  2.8350e+01  2.8350e+01
  2.8350e+01  2.8350e+01  2.8350e+01  2.8350e+01  2.8350e+01  2.8350e+01  2.8350e+01  2.8350e+01  2.8350e+01  2.8350e+01
  2.8350e+01  2.8350e+01  2.8350e+01  2.8350e+01  2.8350e+01  2.8350e+01  2.8350e+01  2.8350e+01  2.8350e+01  2.8350e+01
  2.8350e+01  2.8350e+01  2.8350e+01  2.8350e+01  2.8350e+01  2.8350e+01  2.8350e+01  2.8350e+01  2.8350e+01  2.8350e+01
  2.8350e+01  2.8350e+01  2.8350e+01  2.8350e+01  2.8350e+01  2.8350e+01  2.8350e+01  2.8350e+01  2.8350e+01  2.8350e+01
  2.8350e+01  2.8350e+01  2.8350e+01  2.8350e+01  2.8350e+01  2.8350e+01  2.8350e+01  2.8350e+01  2.8350e+01  2.8350e+01
  2.8350e+01  2.8350e+01  2.8350e+01  2.8350e+01  2.8350e+01  2.8350e+01  2.8350e+01  2.8350e+01  2.8350e+01  2.8350e+01
  2.8350e+01  2.8350e+01  2.8350e+01  2.8350e+01  2.8350e+01  2.8350e+01  2.8350e+01  2.8350e+01  2.8350e+01  2.8350e+01
  2.8350e+01  2.8350e+01  2.8350e+01  2.8350e+01  2.8350e+01  2.8350e+01  2.8350e+01  2.8350e+01  2.8350e+01  2.8350e+01
  2.8350e+01  2.8350e+01  2.8350e+01  2.8350e+01  2.8350e+01  2.8350e+01  2.8350e+01  2.8350e+01  2.8350e+01  2.8350e+01
  2.8350e+01  2.8350e+01  2.8350e+01  2.8350e+01  2.8350e+01  2.8350e+01  2.8350e+01  2.8350e+01  2.8350e+01  2.8350e+01
  2.8350e+01  2.8350e+01  2.8350e+01  2.8350e+01  2.8350e+01  2.8350e+01  2.8350e+01  2.8350e+01  2.8350e+01  2.8350e+01
  2.8350e+01  2.8350e+01  2.8350e+01  2.8350e+01  2.8350e+01  2.8350e+01  2.8350e+01  2.8350e+01  2.8350e+01  2.8350e+01
  2.8350e+01  2.8350e+01  2.8350e+01  2.8350e+01  2.8350e+01  2.8350e+01  2.8350e+01  2.8350e+01  2.8350e+01  2.8350e+01
        11   1.00000(10e12.4)                   -1     VERTICAL HYDRAULIC CONDUCTIVITY Layer   4
  2.8350e+01  2.8350e+01  2.8350e+01  2.8350e+01  2.8350e+01  2.8350e+01  2.8350e+01  2.8350e+01  2.8350e+01  2.8350e+01
  2.8350e+01  2.8350e+01  2.8350e+01  2.8350e+01  2.8350e+01  2.8350e+01  2.8350e+01  2.8350e+01  2.8350e+01  2.8350e+01
  2.8350e+01  2.8350e+01  2.8350e+01  2.8350e+01  2.8350e+01  2.8350e+01  2.8350e+01  2.8350e+01  2.8350e+01  2.8350e+01
  2.8350e+01  2.8350e+01  2.8350e+01  2.8350e+01  2.8350e+01  2.8350e+01  2.8350e+01  2.8350e+01  2.8350e+01  2.8350e+01
  2.8350e+01  2.8350e+01  2.8350e+01  2.8350e+01  2.8350e+01  2.8350e+01  2.8350e+01  2.8350e+01  2.8350e+01  2.8350e+01
  2.8350e+01  2.8350e+01  2.8350e+01  2.8350e+01  2.8350e+01  2.8350e+01  2.8350e+01  2.8350e+01  2.8350e+01  2.8350e+01
  2.8350e+01  2.8350e+01  2.8350e+01  2.8350e+01  2.8350e+01  2.8350e+01  2.8350e+01  2.8350e+01  2.8350e+01  2.8350e+01
  2.8350e+01  2.8350e+01  2.8350e+01  2.8350e+01  2.8350e+01  2.8350e+01  2.8350e+01  2.8350e+01  2.8350e+01  2.8350e+01
  2.8350e+01  2.8350e+01  2.8350e+01  2.8350e+01  2.8350e+01  2.8350e+01  2.8350e+01  2.8350e+01  2.8350e+01  2.8350e+01
  2.8350e+01  2.8350e+01  2.8350e+01  2.8350e+01  2.8350e+01  2.8350e+01  2.8350e+01  2.8350e+01  2.8350e+01  2.8350e+01
  2.8350e+01  2.8350e+01  2.8350e+01  2.8350e+01  2.8350e+01  2.8350e+01  2.8350e+01  2.8350e+01  2.8350e+01  2.8350e+01
  2.8350e+01  2.8350e+01  2.8350e+01  2.8350e+01  2.8350e+01  2.8350e+01  2.8350e+01  2.8350e+01  2.8350e+01  2.8350e+01
  2.8350e+01  2.8350e+01  2.8350e+01  2.8350e+01  2.8350e+01  2.8350e+01  2.8350e+01  2.8350e+01  2.8350e+01  2.8350e+01
  2.8350e+01  2.8350e+01  2.8350e+01  2.8350e+01  2.8350e+01  2.8350e+01  2.8350e+01  2.8350e+01  2.8350e+01  2.8350e+01
  2.8350e+01  2.8350e+01  2.8350e+01  2.8350e+01  2.8350e+01  2.8350e+01  2.8350e+01  2.8350e+01  2.8350e+01  2.8350e+01
        11   1.00000(10e12.4)                   -1     HYDRAULIC CONDUCTIVITY Layer   5
  2.8350e+01  2.8350e+01  2.8350e+01  2.8350e+01  2.8350e+01  2.8350e+01  2.8350e+01  2.8350e+01  2.8350e+01  2.8350e+01
  2.8350e+01  2.8350e+01  2.8350e+01  2.8350e+01  2.8350e+01  2.8350e+01  2.8350e+01  2.8350e+01  2.8350e+01  2.8350e+01
  2.8350e+01  2.8350e+01  2.8350e+01  2.8350e+01  2.8350e+01  2.8350e+01  2.8350e+01  2.8350e+01  2.8350e+01  2.8350e+01
  2.8350e+01  2.8350e+01  2.8350e+01  2.8350e+01  2.8350e+01  2.8350e+01  2.8350e+01  2.8350e+01  2.8350e+01  2.8350e+01
  2.8350e+01  2.8350e+01  2.8350e+01  2.8350e+01  2.8350e+01  2.8350e+01  2.8350e+01  2.8350e+01  2.8350e+01  2.8350e+01
  2.8350e+01  2.8350e+01  2.8350e+01  2.8350e+01  2.8350e+01  2.8350e+01  2.8350e+01  2.8350e+01  2.8350e+01  2.8350e+01
  2.8350e+01  2.8350e+01  2.8350e+01  2.8350e+01  2.8350e+01  2.8350e+01  2.8350e+01  2.8350e+01  2.8350e+01  2.8350e+01
  2.8350e+01  2.8350e+01  2.8350e+01  2.8350e+01  2.8350e+01  2.8350e+01  2.8350e+01  2.8350e+01  2.8350e+01  2.8350e+01
  2.8350e+01  2.8350e+01  2.8350e+01  2.8350e+01  2.8350e+01  2.8350e+01  2.8350e+01  2.8350e+01  2.8350e+01  2.8350e+01
  2.8350e+01  2.8350e+01  2.8350e+01  2.8350e+01  2.8350e+01  2.8350e+01  2.8350e+01  2.8350e+01  2.8350e+01  2.8350e+01
  2.8350e+01  2.8350e+01  2.8350e+01  2.8350e+01  2.8350e+01  2.8350e+01  2.8350e+01  2.8350e+01  2.8350e+01  2.8350e+01
  2.8350e+01  2.8350e+01  2.8350e+01  2.8350e+01  2.8350e+01  2.8350e+01  2.8350e+01  2.8350e+01  2.8350e+01  2.8350e+01
  2.8350e+01  2.8350e+01  2.8350e+01  2.8350e+01  2.8350e+01  2.8350e+01  2.8350e+01  2.8350e+01  2.8350e+01  2.8350e+01
  2.8350e+01  2.8350e+01  2.8350e+01  2.8350e+01  2.8350e+01  2.8350e+01  2.8350e+01  2.8350e+01  2.8350e+01  2.8350e+01
  2.8350e+01  2.8350e+01  2.8350e+01  2.8350e+01  2.8350e+01  2.8350e+01  2.8350e+01  2.8350e+01  2.8350e+01  2.8350e+01
        11   1.00000(10e12.4)                   -1     VERTICAL HYDRAULIC CONDUCTIVITY Layer   5
  2.8350e+01  2.8350e+01  2.8350e+01  2.8350e+01  2.8350e+01  2.8350e+01  2.8350e+01  2.8350e+01  2.8350e+01  2.8350e+01
  2.8350e+01  2.8350e+01  2.8350e+01  2.8350e+01  2.8350e+01  2.8350e+01  2.8350e+01  2.8350e+01  2.8350e+01  2.8350e+01
  2.8350e+01  2.8350e+01  2.8350e+01  2.8350e+01  2.8350e+01  2.8350e+01  2.8350e+01  2.8350e+01  2.8350e+01  2.8350e+01
  2.8350e+01  2.8350e+01  2.8350e+01  2.8350e+01  2.8350e+01  2.8350e+01  2.8350e+01  2.8350e+01  2.8350e+01  2.8350e+01
  2.8350e+01  2.8350e+01  2.8350e+01  2.8350e+01  2.8350e+01  2.8350e+01  2.8350e+01  2.8350e+01  2.8350e+01  2.8350e+01
  2.8350e+01  2.8350e+01  2.8350e+01  2.8350e+01  2.8350e+01  2.8350e+01  2.8350e+01  2.8350e+01  2.8350e+01  2.8350e+01
  2.8350e+01  2.8350e+01  2.8350e+01  2.8350e+01  2.8350e+01  2.8350e+01  2.8350e+01  2.8350e+01  2.8350e+01  2.8350e+01
  2.8350e+01  2.8350e+01  2.8350e+01  2.8350e+01  2.8350e+01  2.8350e+01  2.8350e+01  2.8350e+01  2.8350e+01  2.8350e+01
  2.8350e+01  2.8350e+01  2.8350e+01  2.8350e+01  2.8350e+01  2.8350e+01  2.8350e+01  2.8350e+01  2.8350e+01  2.8350e+01
  2.8350e+01  2.8350e+01  2.8350e+01  2.8350e+01  2.8350e+01  2.8350e+01  2.8350e+01  2.8350e+01  2.8350e+01  2.8350e+01
  2.8350e+01  2.8350e+01  2.8350e+01  2.8350e+01  2.8350e+01  2.8350e+01  2.8350e+01  2.8350e+01  2.8350e+01  2.8350e+01
  2.8350e+01  2.8350e+01  2.8350e+01  2.8350e+01  2.8350e+01  2.8350e+01  2.8350e+01  2.8350e+01  2.8350e+01  2.8350e+01
  2.8350e+01  2.8350e+01  2.8350e+01  2.8350e+01  2.8350e+01  2.8350e+01  2.8350e+01  2.8350e+01  2.8350e+01  2.8350e+01
  2.8350e+01  2.8350e+01  2.8350e+01  2.8350e+01  2.8350e+01  2.8350e+01  2.8350e+01  2.8350e+01  2.8350e+01  2.8350e+01
  2.8350e+01  2.8350e+01  2.8350e+01  2.8350e+01  2.8350e+01  2.8350e+01  2.8350e+01  2.8350e+01  2.8350e+01  2.8350e+01
        11   1.00000(10e12.4)                   -1     HYDRAULIC CONDUCTIVITY Layer   6
  2.8350e+01  2.8350e+01  2.8350e+01  2.8350e+01  2.8350e+01  2.8350e+01  2.8350e+01  2.8350e+01  2.8350e+01  2.8350e+01
  2.8350e+01  2.8350e+01  2.8350e+01  2.8350e+01  2.8350e+01  2.8350e+01  2.8350e+01  2.8350e+01  2.8350e+01  2.8350e+01
  2.8350e+01  2.8350e+01  2.8350e+01  2.8350e+01  2.8350e+01  2.8350e+01  2.8350e+01  2.8350e+01  2.8350e+01  2.8350e+01
  2.8350e+01  2.8350e+01  2.8350e+01  2.8350e+01  2.8350e+01  2.8350e+01  2.8350e+01  2.8350e+01  2.8350e+01  2.8350e+01
  2.8350e+01  2.8350e+01  2.8350e+01  2.8350e+01  2.8350e+01  2.8350e+01  2.8350e+01  2.8350e+01  2.8350e+01  2.8350e+01
  2.8350e+01  2.8350e+01  2.8350e+01  2.8350e+01  2.8350e+01  2.8350e+01  2.8350e+01  2.8350e+01  2.8350e+01  2.8350e+01
  2.8350e+01  2.8350e+01  2.8350e+01  2.8350e+01  2.8350e+01  2.8350e+01  2.8350e+01  2.8350e+01  2.8350e+01  2.8350e+01
  2.8350e+01  2.8350e+01  2.8350e+01  2.8350e+01  2.8350e+01  2.8350e+01  2.8350e+01  2.8350e+01  2.8350e+01  2.8350e+01
  2.8350e+01  2.8350e+01  2.8350e+01  2.8350e+01  2.8350e+01  2.8350e+01  2.8350e+01  2.8350e+01  2.8350e+01  2.8350e+01
  2.8350e+01  2.8350e+01  2.8350e+01  2.8350e+01  2.8350e+01  2.8350e+01  2.8350e+01  2.8350e+01  2.8350e+01  2.8350e+01
  2.8350e+01  2.8350e+01  2.8350e+01  2.8350e+01  2.8350e+01  2.8350e+01  2.8350e+01  2.8350e+01  2.8350e+01  2.8350e+01
  2.8350e+01  2.8350e+01  2.8350e+01  2.8350e+01  2.8350e+01  2.8350e+01  2.8350e+01  2.8350e+01  2.8350e+01  2.8350e+01
  2.8350e+01  2.8350e+01  2.8350e+01  2.8350e+01  2.8350e+01  2.8350e+01  2.8350e+01  2.8350e+01  2.8350e+01  2.8350e+01
  2.8350e+01  2.8350e+01  2.8350e+01  2.8350e+01  2.8350e+01  2.8350e+01  2.8350e+01  2.8350e+01  2.8350e+01  2.8350e+01
  2.8350e+01  2.8350e+01  2.8350e+01  2.8350e+01  2.8350e+01  2.8350e+01  2.8350e+01  2.8350e+01  2.8350e+01  2.8350e+01
        11   1.00000(10e12.4)                   -1     VERTICAL HYDRAULIC CONDUCTIVITY Layer   6
  2.8350e+01  2.8350e+01  2.8350e+01  2.8350e+01  2.8350e+01  2.8350e+01  2.8350e+01  2.8350e+01  2.8350e+01  2.8350e+01
  2.8350e+01  2.8350e+01  2.8350e+01  2.8350e+01  2.8350e+01  2.8350e+01  2.8350e+01  2.8350e+01  2.8350e+01  2.8350e+01
  2.8350e+01  2.8350e+01  2.8350e+01  2.8350e+01  2.8350e+01  2.8350e+01  2.8350e+01  2.8350e+01  2.8350e+01  2.8350e+01
  2.8350e+01  2.8350e+01  2.8350e+01  2.8350e+01  2.8350e+01  2.8350e+01  2.8350e+01  2.8350e+01  2.8350e+01  2.8350e+01
  2.8350e+01  2.8350e+01  2.8350e+01  2.8350e+01  2.8350e+01  2.8350e+01  2.8350e+01  2.8350e+01  2.8350e+01  2.8350e+01
  2.8350e+01  2.8350e+01  2.8350e+01  2.8350e+01  2.8350e+01  2.8350e+01  2.8350e+01  2.8350e+01  2.8350e+01  2.8350e+01
  2.8350e+01  2.8350e+01  2.8350e+01  2.8350e+01  2.8350e+01  2.8350e+01  2.8350e+01  2.8350e+01  2.8350e+01  2.8350e+01
  2.8350e+01  2.8350e+01  2.8350e+01  2.8350e+01  2.8350e+01  2.8350e+01  2.8350e+01  2.8350e+01  2.8350e+01  2.8350e+01
  2.8350e+01  2.8350e+01  2.8350e+01  2.8350e+01  2.8350e+01  2.8350e+01  2.8350e+01  2.8350e+01  2.8350e+01  2.8350e+01
  2.8350e+01  2.8350e+01  2.8350e+01  2.8350e+01  2.8350e+01  2.8350e+01  2.8350e+01  2.8350e+01  2.8350e+01  2.8350e+01
  2.8350e+01  2.8350e+01  2.8350e+01  2.8350e+01  2.8350e+01  2.8350e+01  2.8350e+01  2.8350e+01  2.8350e+01  2.8350e+01
  2.8350e+01  2.8350e+01  2.8350e+01  2.8350e+01  2.8350e+01  2.8350e+01  2.8350e+01  2.8350e+01  2.8350e+01  2.8350e+01
  2.8350e+01  2.8350e+01  2.8350e+01  2.8350e+01  2.8350e+01  2.8350e+01  2.8350e+01  2.8350e+01  2.8350e+01  2.8350e+01
  2.8350e+01  2.8350e+01  2.8350e+01  2.8350e+01  2.8350e+01  2.8350e+01  2.8350e+01  2.8350e+01  2.8350e+01  2.8350e+01
  2.8350e+01  2.8350e+01  2.8350e+01  2.8350e+01  2.8350e+01  2.8350e+01  2.8350e+01  2.8350e+01  2.8350e+01  2.8350e+01
        11   1.00000(10e12.4)                   -1     HYDRAULIC CONDUCTIVITY Layer   7
  2.8350e+01  2.8350e+01  2.8350e+01  2.8350e+01  2.8350e+01  2.8350e+01  2.8350e+01  2.8350e+01  2.8350e+01  2.8350e+01
  2.8350e+01  2.8350e+01  2.8350e+01  2.8350e+01  2.8350e+01  2.8350e+01  2.8350e+01  2.8350e+01  2.8350e+01  2.8350e+01
  2.8350e+01  2.8350e+01  2.8350e+01  2.8350e+01  2.8350e+01  2.8350e+01  2.8350e+01  2.8350e+01  2.8350e+01  2.8350e+01
  2.8350e+01  2.8350e+01  2.8350e+01  2.8350e+01  2.8350e+01  2.8350e+01  2.8350e+01  2.8350e+01  2.8350e+01  2.8350e+01
  2.8350e+01  2.8350e+01  2.8350e+01  2.8350e+01  2.8350e+01  2.8350e+01  2.8350e+01  2.8350e+01  2.8350e+01  2.8350e+01
  2.8350e+01  2.8350e+01  2.8350e+01  2.8350e+01  2.8350e+01  2.8350e+01  2.8350e+01  2.8350e+01  2.8350e+01  2.8350e+01
  2.8350e+01  2.8350e+01  2.8350e+01  2.8350e+01  2.8350e+01  2.8350e+01  2.8350e+01  2.8350e+01  2.8350e+01  2.8350e+01
  2.8350e+01  2.8350e+01  2.8350e+01  2.8350e+01  2.8350e+01  2.8350e+01  2.8350e+01  2.8350e+01  2.8350e+01  2.8350e+01
  2.8350e+01  2.8350e+01  2.8350e+01  2.8350e+01  2.8350e+01  2.8350e+01  2.8350e+01  2.8350e+01  2.8350e+01  2.8350e+01
  2.8350e+01  2.8350e+01  2.8350e+01  2.8350e+01  2.8350e+01  2.8350e+01  2.8350e+01  2.8350e+01  2.8350e+01  2.8350e+01
  2.8350e+01  2.8350e+01  2.8350e+01  2.8350e+01  2.8350e+01  2.8350e+01  2.8350e+01  2.8350e+01  2.8350e+01  2.8350e+01
  2.8350e+01  2.8350e+01  2.8350e+01  2.8350e+01  2.8350e+01  2.8350e+01  2.8350e+01  2.8350e+01  2.8350e+01  2.8350e+01
  2.8350e+01  2.8350e+01  2.8350e+01  2.8350e+01  2.8350e+01  2.8350e+01  2.8350e+01  2.8350e+01  2.8350e+01  2.8350e+01
  2.8350e+01  2.8350e+01  2.8350e+01  2.8350e+01  2.8350e+01  2.8350e+01  2.8350e+01  2.8350e+01  2.8350e+01  2.8350e+01
  2.8350e+01  2.8350e+01  2.8350e+01  2.8350e+01  2.8350e+01  2.8350e+01  2.8350e+01  2.8350e+01  2.8350e+01  2.8350e+01
        11   1.00000(10e12.4)                   -1     VERTICAL HYDRAULIC CONDUCTIVITY Layer   7
  2.8350e+01  2.8350e+01  2.8350e+01  2.8350e+01  2.8350e+01  2.8350e+01  2.8350e+01  2.8350e+01  2.8350e+01  2.8350e+01
  2.8350e+01  2.8350e+01  2.8350e+01  2.8350e+01  2.8350e+01  2.8350e+01  2.8350e+01  2.8350e+01  2.8350e+01  2.8350e+01
  2.8350e+01  2.8350e+01  2.8350e+01  2.8350e+01  2.8350e+01  2.8350e+01  2.8350e+01  2.8350e+01  2.8350e+01  2.8350e+01
  2.8350e+01  2.8350e+01  2.8350e+01  2.8350e+01  2.8350e+01  2.8350e+01  2.8350e+01  2.8350e+01  2.8350e+01  2.8350e+01
  2.8350e+01  2.8350e+01  2.8350e+01  2.8350e+01  2.8350e+01  2.8350e+01  2.8350e+01  2.8350e+01  2.8350e+01  2.8350e+01
  2.8350e+01  2.8350e+01  2.8350e+01  2.8350e+01  2.8350e+01  2.8350e+01  2.8350e+01  2.8350e+01  2.8350e+01  2.8350e+01
  2.8350e+01  2.8350e+01  2.8350e+01  2.8350e+01  2.8350e+01  2.8350e+01  2.8350e+01  2.8350e+01  2.8350e+01  2.8350e+01
  2.8350e+01  2.8350e+01  2.8350e+01  2.8350e+01  2.8350e+01  2.8350e+01  2.8350e+01  2.8350e+01  2.8350e+01  2.8350e+01
  2.8350e+01  2.8350e+01  2.8350e+01  2.8350e+01  2.8350e+01  2.8350e+01  2.8350e+01  2.8350e+01  2.8350e+01  2.8350e+01
  2.8350e+01  2.8350e+01  2.8350e+01  2.8350e+01  2.8350e+01  2.8350e+01  2.8350e+01  2.8350e+01  2.8350e+01  2.8350e+01
  2.8350e+01  2.8350e+01  2.8350e+01  2.8350e+01  2.8350e+01  2.8350e+01  2.8350e+01  2.8350e+01  2.8350e+01  2.8350e+01
  2.8350e+01  2.8350e+01  2.8350e+01  2.8350e+01  2.8350e+01  2.8350e+01  2.8350e+01  2.8350e+01  2.8350e+01  2.8350e+01
  2.8350e+01  2.8350e+01  2.8350e+01  2.8350e+01  2.8350e+01  2.8350e+01  2.8350e+01  2.8350e+01  2.8350e+01  2.8350e+01
  2.8350e+01  2.8350e+01  2.8350e+01  2.8350e+01  2.8350e+01  2.8350e+01  2.8350e+01  2.8350e+01  2.8350e+01  2.8350e+01
  2.8350e+01  2.8350e+01  2.8350e+01  2.8350e+01  2.8350e+01  2.8350e+01  2.8350e+01  2.8350e+01  2.8350e+01  2.8350e+01
        11   1.00000(10e12.4)                   -1     HYDRAULIC CONDUCTIVITY Layer   8
  2.8350e+01  2.8350e+01  2.8350e+01  2.8350e+01  2.8350e+01  2.8350e+01  2.8350e+01  2.8350e+01  2.8350e+01  2.8350e+01
  2.8350e+01  2.8350e+01  2.8350e+01  2.8350e+01  2.8350e+01  2.8350e+01  2.8350e+01  2.8350e+01  2.8350e+01  2.8350e+01
  2.8350e+01  2.8350e+01  2.8350e+01  2.8350e+01  2.8350e+01  2.8350e+01  2.8350e+01  2.8350e+01  2.8350e+01  2.8350e+01
  2.8350e+01  2.8350e+01  2.8350e+01  2.8350e+01  2.8350e+01  2.8350e+01  2.8350e+01  2.8350e+01  2.8350e+01  2.8350e+01
  2.8350e+01  2.8350e+01  2.8350e+01  2.8350e+01  2.8350e+01  2.8350e+01  2.8350e+01  2.8350e+01  2.8350e+01  2.8350e+01
  2.8350e+01  2.8350e+01  2.8350e+01  2.8350e+01  2.8350e+01  2.8350e+01  2.8350e+01  2.8350e+01  2.8350e+01  2.8350e+01
  2.8350e+01  2.8350e+01  2.8350e+01  2.8350e+01  2.8350e+01  2.8350e+01  2.8350e+01  2.8350e+01  2.8350e+01  2.8350e+01
  2.8350e+01  2.8350e+01  2.8350e+01  2.8350e+01  2.8350e+01  2.8350e+01  2.8350e+01  2.8350e+01  2.8350e+01  2.8350e+01
  2.8350e+01  2.8350e+01  2.8350e+01  2.8350e+01  2.8350e+01  2.8350e+01  2.8350e+01  2.8350e+01  2.8350e+01  2.8350e+01
  2.8350e+01  2.8350e+01  2.8350e+01  2.8350e+01  2.8350e+01  2.8350e+01  2.8350e+01  2.8350e+01  2.8350e+01  2.8350e+01
  2.8350e+01  2.8350e+01  2.8350e+01  2.8350e+01  2.8350e+01  2.8350e+01  2.8350e+01  2.8350e+01  2.8350e+01  2.8350e+01
  2.8350e+01  2.8350e+01  2.8350e+01  2.8350e+01  2.8350e+01  2.8350e+01  2.8350e+01  2.8350e+01  2.8350e+01  2.8350e+01
  2.8350e+01  2.8350e+01  2.8350e+01  2.8350e+01  2.8350e+01  2.8350e+01  2.8350e+01  2.8350e+01  2.8350e+01  2.8350e+01
  2.8350e+01  2.8350e+01  2.8350e+01  2.8350e+01  2.8350e+01  2.8350e+01  2.8350e+01  2.8350e+01  2.8350e+01  2.8350e+01
  2.8350e+01  2.8350e+01  2.8350e+01  2.8350e+01  2.8350e+01  2.8350e+01  2.8350e+01  2.8350e+01  2.8350e+01  2.8350e+01
        11   1.00000(10e12.4)                   -1     VERTICAL HYDRAULIC CONDUCTIVITY Layer   8
  2.8350e+01  2.8350e+01  2.8350e+01  2.8350e+01  2.8350e+01  2.8350e+01  2.8350e+01  2.8350e+01  2.8350e+01  2.8350e+01
  2.8350e+01  2.8350e+01  2.8350e+01  2.8350e+01  2.8350e+01  2.8350e+01  2.8350e+01  2.8350e+01  2.8350e+01  2.8350e+01
  2.8350e+01  2.8350e+01  2.8350e+01  2.8350e+01  2.8350e+01  2.8350e+01  2.8350e+01  2.8350e+01  2.8350e+01  2.8350e+01
  2.8350e+01  2.8350e+01  2.8350e+01  2.8350e+01  2.8350e+01  2.8350e+01  2.8350e+01  2.8350e+01  2.8350e+01  2.8350e+01
  2.8350e+01  2.8350e+01  2.8350e+01  2.8350e+01  2.8350e+01  2.8350e+01  2.8350e+01  2.8350e+01  2.8350e+01  2.8350e+01
  2.8350e+01  2.8350e+01  2.8350e+01  2.8350e+01  2.8350e+01  2.8350e+01  2.8350e+01  2.8350e+01  2.8350e+01  2.8350e+01