LIST             0  gv131.out
BTN              0  gv131.btn
ADV              0  gv131.adv
DSP              0  gv131.dsp
SSM              0  gv131.ssm
RCT              0  gv131.rct
HSS              0  gv131.hss
GCG              0  gv131.gcg
FTL              0  gv131.ftl
DATA(BINARY)   201  gv1311.ucn
DATA           401  gv1311.obs
DATA           150  hss_source.dat    # Needed for Travis auto-testing (pymake only copies files listed in the name file).  This line is scrubbed from this file before launching MT3D-USGS by custom python script.  Needed for 
