Conversion from Groundwater Vistas
MT3D Model
         8        36        23         1         1         1
D   FT  LB  
 T F T F T
 1 1 1 1 1 1 1 1 1 1
       0004.05665E02(10F13.0)                   -1     DELTA-X or C
       0004.03717E02(10F4.0)                    -1     DELTA-Y or R
       000     100.0(10F5.0)                    -1     TOP OF MODEL
       100     1.000(01F12.6)                    -1     DELZ Layer   1
66.652932
66.037770
65.561415
65.139827
65.009728
65.193916
65.095645
65.011368
65.229421
65.258172
65.026958
65.102215
65.423040
65.494622
65.202489
65.014641
65.412868
65.579436
65.054865
65.262414
65.327850
65.059233
65.360112
67.248671
66.302842
65.822871
65.405904
65.279665
65.381720
65.297049
65.236247
65.402090
65.438511
65.287777
65.356568
65.627210
65.849200
65.623859
65.509965
65.878089
65.957365
65.598536
65.833612
65.917758
65.808342
66.061041
67.742369
67.244341
66.400005
66.053917
65.899400
65.807534
65.727194
65.718578
65.874671
65.928421
65.907108
65.990334
66.036420
66.321541
66.286016
66.480029
66.504508
66.639507
66.830730
67.023391
67.239748
67.381421
67.536633
68.370876
68.020905
67.486901
66.946590
66.735914
66.464957
66.342511
66.418728
66.490583
66.559168
66.601622
66.671750
66.824741
66.941388
67.283131
67.372720
67.588676
67.787860
67.990342
68.334738
68.725460
68.958964
69.230442
69.040697
68.858251
68.661158
68.251862
67.717058
67.260235
67.083107
67.159337
67.250778
67.350777
67.406051
67.431924
67.766825
67.898628
68.052991
68.204625
68.698196
68.885953
69.120924
69.647570
69.897259
69.953833
70.184899
69.640878
69.592088
69.558541
69.090853
68.735949
68.396272
67.963600
67.919475
68.093067
68.264147
68.301086
68.226297
68.439123
68.537997
68.957337
69.150598
69.334593
69.500512
69.840401
69.979277
70.203301
70.162950
70.124019
70.392018
70.260895
70.122136
70.039987
69.532801
69.087653
68.880121
68.593780
68.919152
69.323910
69.344245
69.151543
68.993033
69.276934
69.429727
69.798254
69.911942
70.160343
70.187858
70.145828
70.268326
70.160184
70.109358
70.504753
70.346000
70.298688
70.291827
70.141823
69.729390
69.317551
69.411033
69.623772
70.030121
70.014221
69.762576
69.558699
69.783594
69.782711
70.053132
70.300000
70.258717
70.300000
70.300000
70.300000
70.300000
70.300000
70.855399
70.672388
70.411511
70.383475
70.479021
70.320913
69.863523
69.676965
69.850311
70.240366
70.235194
69.936347
69.896045
70.109836
70.177231
70.300000
70.300000
70.300000
70.300000
70.300000
70.300000
70.300000
70.300000
71.943952
71.249192
71.046175
70.823519
70.905052
70.949834
70.295893
70.228057
70.056771
70.076295
70.137535
70.151325
70.117303
70.300000
70.300000
70.300000
70.300000
70.300000
70.300000
70.300000
70.300000
70.300000
70.300000
73.515026
72.950791
72.537519
71.979641
72.151943
71.584395
71.408566
70.495193
70.081272
70.228233
69.997806
70.130813
70.300000
70.300000
70.300000
70.300000
70.300000
70.300000
70.300000
70.300000
70.300000
70.300000
70.300000
75.417457
74.981208
74.810951
73.798915
73.285489
73.113021
72.850026
72.290444
71.456588
70.902268
70.300000
70.300000
70.300000
70.300000
70.300000
70.300000
70.300000
70.300000
70.300000
70.300000
70.300000
70.300000
70.300000
77.248921
76.968167
76.687828
76.442291
76.235951
75.746715
75.218011
73.848638
72.870536
71.975794
70.300000
70.300000
70.300000
70.300000
70.300000
70.300000
70.300000
70.300000
70.300000
70.300000
70.300000
70.300000
70.300000
78.137752
77.985519
77.784314
77.549760
77.304265
77.044702
76.215771
75.261017
74.221979
73.138040
71.522118
70.300000
70.300000
70.300000
70.300000
70.300000
70.300000
70.300000
70.300000
70.300000
70.300000
70.300000
70.300000
79.091347
79.055505
78.578406
78.365689
78.124554
77.866357
77.600358
76.730504
75.668244
74.557070
73.299813
71.632818
70.839502
70.300000
70.300000
70.300000
70.300000
70.300000
70.300000
70.300000
70.300000
70.300000
70.300000
79.440535
79.437316
79.372615
79.276905
78.710477
78.478523
78.246439
78.026089
77.119333
75.984415
74.615011
72.691350
71.704919
71.386321
70.768167
70.300000
70.300000
70.300000
70.300000
70.300000
70.300000
70.300000
70.300000
79.655352
79.672200
79.601300
79.507071
79.420565
79.348199
79.228734
79.079190
78.297362
77.268965
76.761358
73.268415
72.111086
71.793344
71.386220
70.759722
70.579439
70.434528
70.366405
70.343321
70.374091
70.365251
70.376971
79.800000
79.800000
79.800000
79.800000
79.800000
79.800000
79.800000
79.307255
79.194012
78.366175
77.270979
75.359610
73.412993
72.839409
71.854447
71.429895
71.076285
70.789677
70.504461
70.388230
70.432925
70.338334
70.502087
79.800000
79.800000
79.800000
79.800000
79.800000
79.800000
79.800000
79.800000
79.800000
78.686005
78.299967
76.639039
75.313582
74.061276
72.986058
72.475608
71.961555
71.255850
70.953431
70.819332
70.778595
70.777275
70.977019
79.800000
79.800000
79.800000
79.800000
79.800000
79.800000
79.800000
79.800000
79.800000
79.340928
78.618970
77.722732
76.096804
75.442876
74.373401
73.468267
72.953635
72.430389
72.008662
71.607873
71.565228
71.621375
71.769755
79.800000
79.800000
79.800000
79.800000
79.800000
79.800000
79.800000
79.800000
79.800000
79.800000
78.933140
78.240865
77.332149
76.370460
75.509778
75.134260
74.384737
73.817339
73.332414
73.101982
72.925583
73.084808
73.164186
79.800000
79.800000
79.800000
79.800000
79.800000
79.800000
79.800000
79.800000
79.800000
79.800000
79.248568
79.026354
78.323467
77.583190
77.074253
76.729338
76.452478
75.561068
74.908011
74.737015
75.084521
75.526564
75.310709
79.800000
79.800000
79.800000
79.800000
79.800000
79.800000
79.800000
79.800000
79.800000
79.800000
79.681546
79.373361
78.772969
78.194450
78.072303
78.511784
78.378550
77.344358
76.367974
76.269940
77.157773
78.136454
77.893874
79.800000
79.800000
79.800000
79.800000
79.800000
79.800000
79.800000
79.800000
79.800000
79.800000
79.809211
79.777691
79.449915
79.006310
78.988161
79.455231
79.623724
78.770939
77.631371
77.554586
78.430553
79.654692
79.300082
79.800000
79.800000
79.800000
79.800000
79.800000
79.800000
79.800000
79.800000
79.800000
79.883736
79.881171
80.041130
79.980573
79.375794
79.421882
79.634411
79.606198
79.035303
78.354626
78.273733
78.867574
79.472268
79.239795
79.800000
79.800000
79.800000
79.800000
79.800000
79.800000
79.800000
80.051005
80.081013
80.261074
80.222352
80.331644
80.698428
80.398416
79.971914
79.528163
79.607543
79.257692
79.001534
78.421265
78.648389
78.888864
78.795921
79.800000
79.800000
79.800000
79.800000
79.800000
79.800000
80.167028
80.247458
80.687489
80.709410
80.723948
81.063547
81.180399
80.837470
80.922813
80.746181
79.828647
79.467859
79.322352
79.212073
79.165364
78.650129
78.562092
79.874516
79.876904
80.042796
80.208303
80.305996
80.846274
80.963820
81.523298
81.648517
81.695741
81.703861
81.789237
81.841436
82.103613
81.633032
81.488709
81.003523
80.556245
79.858274
79.727923
79.605719
79.492709
78.724953
80.085760
80.102067
80.508740
80.871513
81.204919
81.449730
82.114715
82.326845
82.486253
82.556634
82.966989
82.996321
83.266536
83.181985
82.472634
82.343448
81.866089
81.741714
81.264571
80.491919
80.327159
80.561402
80.401050
80.025886
80.711416
81.510515
82.013020
81.983901
82.697259
83.061428
83.304050
83.454668
83.894735
83.954174
83.964364
84.178334
84.039105
83.910536
83.250079
83.161769
82.809058
82.661273
82.501837
82.144132
81.970296
80.836212
80.771463
82.047657
83.142219
83.354918
83.661448
84.011454
84.188606
84.442297
84.756983
84.855471
84.953137
85.191156
85.057011
84.842431
84.688715
84.541056
84.664152
83.716855
83.578515
83.145160
82.934951
82.694205
81.839090
82.783901
84.517496
85.859103
84.970980
84.605514
84.964207
85.630203
85.667079
85.625672
85.653114
85.892919
86.063251
85.823136
85.511330
85.346076
85.472874
85.347907
84.709741
84.557884
84.509065
84.003865
83.754523
83.420074
84.047224
85.762709
86.880373
85.777473
85.159976
85.602769
86.629129
86.746833
86.307663
86.193875
86.685821
86.737908
86.364852
85.976805
85.975987
86.056493
86.043650
85.851147
85.410843
85.367337
85.016036
84.788533
84.397699
84.283771
85.208459
85.741336
85.421385
85.283931
85.815085
86.755253
86.838043
86.431000
86.466806
86.892053
86.939654
86.558438
86.316043
86.301321
86.597734
86.634593
86.572084
86.218693
85.976165
86.010311
85.729622
85.269395
84.282722
84.638886
84.925724
84.993221
85.161442
85.533980
86.288254
86.395846
86.271808
86.471023
86.631260
86.671119
86.446882
86.491960
86.574764
86.761106
86.978585
86.860623
86.510333
86.524777
86.700189
86.461312
85.922696
84.115087
84.323137
84.530812
84.707179
84.946219
85.491875
85.810395
85.965273
86.024457
86.286218
86.410909
86.320100
86.252412
86.245268
86.426162
86.742064
86.929224
86.795929
86.647226
86.785203
86.992481
86.828864
86.239974
        00     15.00(01F12.6)                    -1     DELZ Layer   2
        00     15.00(01F12.6)                    -1     DELZ Layer   3
        00     15.00(01F12.6)                    -1     DELZ Layer   4
        00     15.00(01F12.6)                    -1     DELZ Layer   5
        00     15.00(01F12.6)                    -1     DELZ Layer   6
        00     15.00(01F12.6)                    -1     DELZ Layer   7
        00     15.00(01F12.6)                    -1     DELZ Layer   8
         0       0.3(10E12.4)                   -1     POROSITY Layer   1
         0       0.3(10E12.4)                   -1     POROSITY Layer   2
         0       0.3(10E12.4)                   -1     POROSITY Layer   3
         0       0.3(10E12.4)                   -1     POROSITY Layer   4
         0       0.3(10E12.4)                   -1     POROSITY Layer   5
         0       0.3(10E12.4)                   -1     POROSITY Layer   6
         0       0.3(10E12.4)                   -1     POROSITY Layer   7
         0       0.3(10E12.4)                   -1     POROSITY Layer   8
         0         1(25I3)                       0     ICBUND Layer   1
         0         1(25I3)                       0     ICBUND Layer   2
         0         1(25I3)                       0     ICBUND Layer   3
         0         1(25I3)                       0     ICBUND Layer   4
         0         1(25I3)                       0     ICBUND Layer   5
         0         1(25I3)                       0     ICBUND Layer   6
         0         1(25I3)                       0     ICBUND Layer   7
         0         1(25I3)                       0     ICBUND Layer   8
       000     0.000(10E12.4)                   -1     INITIAL CONCENTRATION Layer   1
       000     0.000(10E12.4)                   -1     INITIAL CONCENTRATION Layer   2
       000     0.000(10E12.4)                   -1     INITIAL CONCENTRATION Layer   3
       000     0.000(10E12.4)                   -1     INITIAL CONCENTRATION Layer   4
       000     0.000(10E12.4)                   -1     INITIAL CONCENTRATION Layer   5
       000     0.000(10E12.4)                   -1     INITIAL CONCENTRATION Layer   6
       000     0.000(10E12.4)                   -1     INITIAL CONCENTRATION Layer   7
       000     0.000(10E12.4)                   -1     INITIAL CONCENTRATION Layer   8
-1.000e+00 1.000e-03
         0         0         0         0         T         F
        -1
         0        10
         T        10
    9131.0         1 1.000e+00
7.4500e-00    300000 1.000e+00 1.000e+01
