# MODFLOW-NWT - Link-MT3DMS Package Input File
OUTPUT_FILE_NAME gwt.ftl
OUTPUT_FILE_UNIT 20
OUTPUT_FILE_HEADER Extended
OUTPUT_FILE_FORMAT FORMATTED
PACKAGE_FLOWS SFR LAK
