# Discretization File created on 2/19/2019 by ModelMuse version 3.10.0.42.
# 1D TEST PROBLEM
# Upper left corner: (0, 0)
# Lower left corner: (0, -1)
# Upper right corner: (16.16, 0)
# Lower right corner: (16.16, -1)
# Grid angle (in degrees counterclockwise): 0
BEGIN OPTIONS
  LENGTH_UNITS METERS
  XORIGIN  0.000000000000E+000 
  YORIGIN -1.000000000000E+000 
  ANGROT  0.000000000000E+000 
END OPTIONS

BEGIN DIMENSIONS
  NLAY      1
  NROW      1
  NCOL    101
END DIMENSIONS


BEGIN GRIDDATA
  DELR LAYERED
    INTERNAL IPRN     12 # DELR
        1.600000000000E-001   1.600000000000E-001   1.600000000000E-001   1.600000000000E-001   1.600000000000E-001   1.600000000000E-001   1.600000000000E-001   1.600000000000E-001   1.600000000000E-001   1.600000000000E-001 
        1.600000000000E-001   1.600000000000E-001   1.600000000000E-001   1.600000000000E-001   1.600000000000E-001   1.600000000000E-001   1.600000000000E-001   1.600000000000E-001   1.600000000000E-001   1.600000000000E-001 
        1.600000000000E-001   1.600000000000E-001   1.600000000000E-001   1.600000000000E-001   1.600000000000E-001   1.600000000000E-001   1.600000000000E-001   1.600000000000E-001   1.600000000000E-001   1.600000000000E-001 
        1.600000000000E-001   1.600000000000E-001   1.600000000000E-001   1.600000000000E-001   1.600000000000E-001   1.600000000000E-001   1.600000000000E-001   1.600000000000E-001   1.600000000000E-001   1.600000000000E-001 
        1.600000000000E-001   1.600000000000E-001   1.600000000000E-001   1.600000000000E-001   1.600000000000E-001   1.600000000000E-001   1.600000000000E-001   1.600000000000E-001   1.600000000000E-001   1.600000000000E-001 
        1.600000000000E-001   1.600000000000E-001   1.600000000000E-001   1.600000000000E-001   1.600000000000E-001   1.600000000000E-001   1.600000000000E-001   1.600000000000E-001   1.600000000000E-001   1.600000000000E-001 
        1.600000000000E-001   1.600000000000E-001   1.600000000000E-001   1.600000000000E-001   1.600000000000E-001   1.600000000000E-001   1.600000000000E-001   1.600000000000E-001   1.600000000000E-001   1.600000000000E-001 
        1.600000000000E-001   1.600000000000E-001   1.600000000000E-001   1.600000000000E-001   1.600000000000E-001   1.600000000000E-001   1.600000000000E-001   1.600000000000E-001   1.600000000000E-001   1.600000000000E-001 
        1.600000000000E-001   1.600000000000E-001   1.600000000000E-001   1.600000000000E-001   1.600000000000E-001   1.600000000000E-001   1.600000000000E-001   1.600000000000E-001   1.600000000000E-001   1.600000000000E-001 
        1.600000000000E-001   1.600000000000E-001   1.600000000000E-001   1.600000000000E-001   1.600000000000E-001   1.600000000000E-001   1.600000000000E-001   1.600000000000E-001   1.600000000000E-001   1.600000000000E-001 
        1.600000000000E-001 
  DELC IPRN    12
    CONSTANT   1.000000000000E+000  # DELC

  TOP LAYERED IPRN    12
    CONSTANT   1.000000000000E+000  # TOP

  BOTM LAYERED IPRN    12
    CONSTANT   0.000000000000E+000  # BOTM, Layer 1

  IDOMAIN LAYERED IPRN     5
    CONSTANT      1 # IDOMAIN 1
END GRIDDATA

