# 1D TEST PROBLEM
# Initial Conditions Package file created on 2/19/2019 by ModelMuse version 3.10.0.42.
BEGIN OPTIONS
END OPTIONS

BEGIN GRIDDATA
  STRT LAYERED
    INTERNAL IPRN     12 # STRT Layer 1
        5.920000000000E-001   5.920000000000E-001   5.920000000000E-001   5.920000000000E-001   5.920000000000E-001   5.920000000000E-001   5.920000000000E-001   5.920000000000E-001   5.920000000000E-001   5.920000000000E-001 
        5.920000000000E-001   5.920000000000E-001   5.920000000000E-001   5.920000000000E-001   5.920000000000E-001   5.920000000000E-001   5.920000000000E-001   5.920000000000E-001   5.920000000000E-001   5.920000000000E-001 
        5.920000000000E-001   5.920000000000E-001   5.920000000000E-001   5.920000000000E-001   5.920000000000E-001   5.920000000000E-001   5.920000000000E-001   5.920000000000E-001   5.920000000000E-001   5.920000000000E-001 
        5.920000000000E-001   5.920000000000E-001   5.920000000000E-001   5.920000000000E-001   5.920000000000E-001   5.920000000000E-001   5.920000000000E-001   5.920000000000E-001   5.920000000000E-001   5.920000000000E-001 
        5.920000000000E-001   5.920000000000E-001   5.920000000000E-001   5.920000000000E-001   5.920000000000E-001   5.920000000000E-001   5.920000000000E-001   5.920000000000E-001   5.920000000000E-001   5.920000000000E-001 
        5.920000000000E-001   5.920000000000E-001   5.920000000000E-001   5.920000000000E-001   5.920000000000E-001   5.920000000000E-001   5.920000000000E-001   5.920000000000E-001   5.920000000000E-001   5.920000000000E-001 
        5.920000000000E-001   5.920000000000E-001   5.920000000000E-001   5.920000000000E-001   5.920000000000E-001   5.920000000000E-001   5.920000000000E-001   5.920000000000E-001   5.920000000000E-001   5.920000000000E-001 
        5.920000000000E-001   5.920000000000E-001   5.920000000000E-001   5.920000000000E-001   5.920000000000E-001   5.920000000000E-001   5.920000000000E-001   5.920000000000E-001   5.920000000000E-001   5.920000000000E-001 
        5.920000000000E-001   5.920000000000E-001   5.920000000000E-001   5.920000000000E-001   5.920000000000E-001   5.920000000000E-001   5.920000000000E-001   5.920000000000E-001   5.920000000000E-001   5.920000000000E-001 
        5.920000000000E-001   5.920000000000E-001   5.920000000000E-001   5.920000000000E-001   5.920000000000E-001   5.920000000000E-001   5.920000000000E-001   5.920000000000E-001   5.920000000000E-001   5.920000000000E-001 
        0.000000000000E+000 
END GRIDDATA

