BEGIN TIMING
  TDIS6 ImportMt3dmsZeroth.tdis
END TIMING

BEGIN MODELS
  GWF6 ImportMt3dmsZeroth.nam   MODFLOW
END MODELS

BEGIN EXCHANGES
END EXCHANGES

BEGIN SOLUTIONGROUP     1
  MXITER     1
  IMS6 ImportMt3dmsZeroth.ims   MODFLOW
END SOLUTIONGROUP

