#
# MT3D-USGS ver 1.00.00 Name file for 1-D test case with non-equilibrium transport
#
# Standard output file
LIST                16        NonEq.m3d
# Transport package input files
BTN                  1        NonEq.btn
ADV                  2        NonEq.adv
DSP                  3        NonEq.dsp
SSM                  4        NonEq.ssm
GCG                  5        NonEq.gcg
RCT                  8        NonEq.rct
UZT2                 7        NonEq.uzt
# Flow-Transport Link input file
FTL                 10        NonEq_wStopQ.ftl   FREE
# UZF File containing RCH and ET options

# Uncomment the following lines to override
# the default names of optional MT3DMS output files
# mt3d001.ucn, mt3d001s.ucn, mt3d001.obs, mt3d001.mas, mt3d.cnf.
# The unit numbers for these files are preset in the
# MT3DMS code.
# data(binary)     201        NonEq.ucn
# data(binary)     301        NonEqs.ucn
data               401        NonEq.obs
#data              601        NonEq.mas
#data               17        NonEq.cnf
