1D Transport problem using example from Vanderborght et al. (2005), modified for UZF/MT3D-USGS link-up
"A set of analytical benchmarks to test numerical models of flow and transport in soils"
       210         1        3          6         1         1  !NLAY,NROW,NCOL,NPER,NCOMP,MCOMP
hr  cm  g                                                     !TUNIT,LUNIT,MUNIT
T T T F T F F F F F                                           !TRNOP: ADV,DSP,SSM,RCT,GCG...
1 1 1 1 1 1 1 1 1 1 1 1 1 1 1 1 1 1 1 1 1 1 1 1 1 1 1 1 1 1 1 1 1 1 1 1 1 1 1 1
1 1 1 1 1 1 1 1 1 1 1 1 1 1 1 1 1 1 1 1 1 1 1 1 1 1 1 1 1 1 1 1 1 1 1 1 1 1 1 1
1 1 1 1 1 1 1 1 1 1 1 1 1 1 1 1 1 1 1 1 1 1 1 1 1 1 1 1 1 1 1 1 1 1 1 1 1 1 1 1
1 1 1 1 1 1 1 1 1 1 1 1 1 1 1 1 1 1 1 1 1 1 1 1 1 1 1 1 1 1 1 1 1 1 1 1 1 1 1 1
1 1 1 1 1 1 1 1 1 1 1 1 1 1 1 1 1 1 1 1 1 1 1 1 1 1 1 1 1 1 1 1 1 1 1 1 1 1 1 1
 1 1 1 1 1 1 1 1 1 1    !LAYCON(NLAY)
         0 1.000E+00                                          !DELR
         0 1.000E+00                                          !DELC
       100  1.00E+00            (3f5.0)         1            !HTOP
20   20   20 
       100  1.00E+00            (3f5.1)         1            !DZ Lay1
0.1  0.1  0.1
       100  1.00E+00            (3f5.1)         1            !DZ Lay2
0.1  0.1  0.1
       100  1.00E+00            (3f5.1)         1            !DZ Lay3
0.1  0.1  0.1
       100  1.00E+00            (3f5.1)         1            !DZ Lay4
0.1  0.1  0.1
       100  1.00E+00            (3f5.1)         1            !DZ Lay5
0.1  0.1  0.1
       100  1.00E+00            (3f5.1)         1            !DZ Lay6
0.1  0.1  0.1
       100  1.00E+00            (3f5.1)         1            !DZ Lay7
0.1  0.1  0.1
       100  1.00E+00            (3f5.1)         1            !DZ Lay8
0.1  0.1  0.1
       100  1.00E+00            (3f5.1)         1            !DZ Lay9
0.1  0.1  0.1
       100  1.00E+00            (3f5.1)         1            !DZ Lay10
0.1  0.1  0.1
       100  1.00E+00            (3f5.1)         1            !DZ Lay11
0.1  0.1  0.1
       100  1.00E+00            (3f5.1)         1            !DZ Lay12
0.1  0.1  0.1
       100  1.00E+00            (3f5.1)         1            !DZ Lay13
0.1  0.1  0.1
       100  1.00E+00            (3f5.1)         1            !DZ Lay14
0.1  0.1  0.1
       100  1.00E+00            (3f5.1)         1            !DZ Lay15
0.1  0.1  0.1
       100  1.00E+00            (3f5.1)         1            !DZ Lay16
0.1  0.1  0.1
       100  1.00E+00            (3f5.1)         1            !DZ Lay17
0.1  0.1  0.1
       100  1.00E+00            (3f5.1)         1            !DZ Lay18
0.1  0.1  0.1
       100  1.00E+00            (3f5.1)         1            !DZ Lay19
0.1  0.1  0.1
       100  1.00E+00            (3f5.1)         1            !DZ Lay20
0.1  0.1  0.1
       100  1.00E+00            (3f5.1)         1            !DZ Lay21
0.1  0.1  0.1
       100  1.00E+00            (3f5.1)         1            !DZ Lay22
0.1  0.1  0.1
       100  1.00E+00            (3f5.1)         1            !DZ Lay23
0.1  0.1  0.1
       100  1.00E+00            (3f5.1)         1            !DZ Lay24
0.1  0.1  0.1
       100  1.00E+00            (3f5.1)         1            !DZ Lay25
0.1  0.1  0.1
       100  1.00E+00            (3f5.1)         1            !DZ Lay26
0.1  0.1  0.1
       100  1.00E+00            (3f5.1)         1            !DZ Lay27
0.1  0.1  0.1
       100  1.00E+00            (3f5.1)         1            !DZ Lay28
0.1  0.1  0.1
       100  1.00E+00            (3f5.1)         1            !DZ Lay29
0.1  0.1  0.1
       100  1.00E+00            (3f5.1)         1            !DZ Lay30
0.1  0.1  0.1
       100  1.00E+00            (3f5.1)         1            !DZ Lay31
0.1  0.1  0.1
       100  1.00E+00            (3f5.1)         1            !DZ Lay32
0.1  0.1  0.1
       100  1.00E+00            (3f5.1)         1            !DZ Lay33
0.1  0.1  0.1
       100  1.00E+00            (3f5.1)         1            !DZ Lay34
0.1  0.1  0.1
       100  1.00E+00            (3f5.1)         1            !DZ Lay35
0.1  0.1  0.1
       100  1.00E+00            (3f5.1)         1            !DZ Lay36
0.1  0.1  0.1
       100  1.00E+00            (3f5.1)         1            !DZ Lay37
0.1  0.1  0.1
       100  1.00E+00            (3f5.1)         1            !DZ Lay38
0.1  0.1  0.1
       100  1.00E+00            (3f5.1)         1            !DZ Lay39
0.1  0.1  0.1
       100  1.00E+00            (3f5.1)         1            !DZ Lay40
0.1  0.1  0.1
       100  1.00E+00            (3f5.1)         1            !DZ Lay41
0.1  0.1  0.1
       100  1.00E+00            (3f5.1)         1            !DZ Lay42
0.1  0.1  0.1
       100  1.00E+00            (3f5.1)         1            !DZ Lay43
0.1  0.1  0.1
       100  1.00E+00            (3f5.1)         1            !DZ Lay44
0.1  0.1  0.1
       100  1.00E+00            (3f5.1)         1            !DZ Lay45
0.1  0.1  0.1
       100  1.00E+00            (3f5.1)         1            !DZ Lay46
0.1  0.1  0.1
       100  1.00E+00            (3f5.1)         1            !DZ Lay47
0.1  0.1  0.1
       100  1.00E+00            (3f5.1)         1            !DZ Lay48
0.1  0.1  0.1
       100  1.00E+00            (3f5.1)         1            !DZ Lay49
0.1  0.1  0.1
       100  1.00E+00            (3f5.1)         1            !DZ Lay50
0.1  0.1  0.1
       100  1.00E+00            (3f5.1)         1            !DZ Lay51
0.1  0.1  0.1
       100  1.00E+00            (3f5.1)         1            !DZ Lay52
0.1  0.1  0.1
       100  1.00E+00            (3f5.1)         1            !DZ Lay53
0.1  0.1  0.1
       100  1.00E+00            (3f5.1)         1            !DZ Lay54
0.1  0.1  0.1
       100  1.00E+00            (3f5.1)         1            !DZ Lay55
0.1  0.1  0.1
       100  1.00E+00            (3f5.1)         1            !DZ Lay56
0.1  0.1  0.1
       100  1.00E+00            (3f5.1)         1            !DZ Lay57
0.1  0.1  0.1
       100  1.00E+00            (3f5.1)         1            !DZ Lay58
0.1  0.1  0.1
       100  1.00E+00            (3f5.1)         1            !DZ Lay59
0.1  0.1  0.1
       100  1.00E+00            (3f5.1)         1            !DZ Lay60
0.1  0.1  0.1
       100  1.00E+00            (3f5.1)         1            !DZ Lay61
0.1  0.1  0.1
       100  1.00E+00            (3f5.1)         1            !DZ Lay62
0.1  0.1  0.1
       100  1.00E+00            (3f5.1)         1            !DZ Lay63
0.1  0.1  0.1
       100  1.00E+00            (3f5.1)         1            !DZ Lay64
0.1  0.1  0.1
       100  1.00E+00            (3f5.1)         1            !DZ Lay65
0.1  0.1  0.1
       100  1.00E+00            (3f5.1)         1            !DZ Lay66
0.1  0.1  0.1
       100  1.00E+00            (3f5.1)         1            !DZ Lay67
0.1  0.1  0.1
       100  1.00E+00            (3f5.1)         1            !DZ Lay68
0.1  0.1  0.1
       100  1.00E+00            (3f5.1)         1            !DZ Lay69
0.1  0.1  0.1
       100  1.00E+00            (3f5.1)         1            !DZ Lay70
0.1  0.1  0.1
       100  1.00E+00            (3f5.1)         1            !DZ Lay71
0.1  0.1  0.1
       100  1.00E+00            (3f5.1)         1            !DZ Lay72
0.1  0.1  0.1
       100  1.00E+00            (3f5.1)         1            !DZ Lay73
0.1  0.1  0.1
       100  1.00E+00            (3f5.1)         1            !DZ Lay74
0.1  0.1  0.1
       100  1.00E+00            (3f5.1)         1            !DZ Lay75
0.1  0.1  0.1
       100  1.00E+00            (3f5.1)         1            !DZ Lay76
0.1  0.1  0.1
       100  1.00E+00            (3f5.1)         1            !DZ Lay77
0.1  0.1  0.1
       100  1.00E+00            (3f5.1)         1            !DZ Lay78
0.1  0.1  0.1
       100  1.00E+00            (3f5.1)         1            !DZ Lay79
0.1  0.1  0.1
       100  1.00E+00            (3f5.1)         1            !DZ Lay80
0.1  0.1  0.1
       100  1.00E+00            (3f5.1)         1            !DZ Lay81
0.1  0.1  0.1
       100  1.00E+00            (3f5.1)         1            !DZ Lay82
0.1  0.1  0.1
       100  1.00E+00            (3f5.1)         1            !DZ Lay83
0.1  0.1  0.1
       100  1.00E+00            (3f5.1)         1            !DZ Lay84
0.1  0.1  0.1
       100  1.00E+00            (3f5.1)         1            !DZ Lay85
0.1  0.1  0.1
       100  1.00E+00            (3f5.1)         1            !DZ Lay86
0.1  0.1  0.1
       100  1.00E+00            (3f5.1)         1            !DZ Lay87
0.1  0.1  0.1
       100  1.00E+00            (3f5.1)         1            !DZ Lay88
0.1  0.1  0.1
       100  1.00E+00            (3f5.1)         1            !DZ Lay89
0.1  0.1  0.1
       100  1.00E+00            (3f5.1)         1            !DZ Lay90
0.1  0.1  0.1
       100  1.00E+00            (3f5.1)         1            !DZ Lay91
0.1  0.1  0.1
       100  1.00E+00            (3f5.1)         1            !DZ Lay92
0.1  0.1  0.1
       100  1.00E+00            (3f5.1)         1            !DZ Lay93
0.1  0.1  0.1
       100  1.00E+00            (3f5.1)         1            !DZ Lay94
0.1  0.1  0.1
       100  1.00E+00            (3f5.1)         1            !DZ Lay95
0.1  0.1  0.1
       100  1.00E+00            (3f5.1)         1            !DZ Lay96
0.1  0.1  0.1
       100  1.00E+00            (3f5.1)         1            !DZ Lay97
0.1  0.1  0.1
       100  1.00E+00            (3f5.1)         1            !DZ Lay98
0.1  0.1  0.1
       100  1.00E+00            (3f5.1)         1            !DZ Lay99
0.1  0.1  0.1
       100  1.00E+00            (3f5.1)         1            !DZ Lay100
0.1  0.1  0.1
       100  1.00E+00            (3f5.1)         1            !DZ Lay1
0.1  0.1  0.1
       100  1.00E+00            (3f5.1)         1            !DZ Lay2
0.1  0.1  0.1
       100  1.00E+00            (3f5.1)         1            !DZ Lay3
0.1  0.1  0.1
       100  1.00E+00            (3f5.1)         1            !DZ Lay4
0.1  0.1  0.1
       100  1.00E+00            (3f5.1)         1            !DZ Lay5
0.1  0.1  0.1
       100  1.00E+00            (3f5.1)         1            !DZ Lay6
0.1  0.1  0.1
       100  1.00E+00            (3f5.1)         1            !DZ Lay7
0.1  0.1  0.1
       100  1.00E+00            (3f5.1)         1            !DZ Lay8
0.1  0.1  0.1
       100  1.00E+00            (3f5.1)         1            !DZ Lay9
0.1  0.1  0.1
       100  1.00E+00            (3f5.1)         1            !DZ Lay10
0.1  0.1  0.1
       100  1.00E+00            (3f5.1)         1            !DZ Lay11
0.1  0.1  0.1
       100  1.00E+00            (3f5.1)         1            !DZ Lay12
0.1  0.1  0.1
       100  1.00E+00            (3f5.1)         1            !DZ Lay13
0.1  0.1  0.1
       100  1.00E+00            (3f5.1)         1            !DZ Lay14
0.1  0.1  0.1
       100  1.00E+00            (3f5.1)         1            !DZ Lay15
0.1  0.1  0.1
       100  1.00E+00            (3f5.1)         1            !DZ Lay16
0.1  0.1  0.1
       100  1.00E+00            (3f5.1)         1            !DZ Lay17
0.1  0.1  0.1
       100  1.00E+00            (3f5.1)         1            !DZ Lay18
0.1  0.1  0.1
       100  1.00E+00            (3f5.1)         1            !DZ Lay19
0.1  0.1  0.1
       100  1.00E+00            (3f5.1)         1            !DZ Lay20
0.1  0.1  0.1
       100  1.00E+00            (3f5.1)         1            !DZ Lay21
0.1  0.1  0.1
       100  1.00E+00            (3f5.1)         1            !DZ Lay22
0.1  0.1  0.1
       100  1.00E+00            (3f5.1)         1            !DZ Lay23
0.1  0.1  0.1
       100  1.00E+00            (3f5.1)         1            !DZ Lay24
0.1  0.1  0.1
       100  1.00E+00            (3f5.1)         1            !DZ Lay25
0.1  0.1  0.1
       100  1.00E+00            (3f5.1)         1            !DZ Lay26
0.1  0.1  0.1
       100  1.00E+00            (3f5.1)         1            !DZ Lay27
0.1  0.1  0.1
       100  1.00E+00            (3f5.1)         1            !DZ Lay28
0.1  0.1  0.1
       100  1.00E+00            (3f5.1)         1            !DZ Lay29
0.1  0.1  0.1
       100  1.00E+00            (3f5.1)         1            !DZ Lay30
0.1  0.1  0.1
       100  1.00E+00            (3f5.1)         1            !DZ Lay31
0.1  0.1  0.1
       100  1.00E+00            (3f5.1)         1            !DZ Lay32
0.1  0.1  0.1
       100  1.00E+00            (3f5.1)         1            !DZ Lay33
0.1  0.1  0.1
       100  1.00E+00            (3f5.1)         1            !DZ Lay34
0.1  0.1  0.1
       100  1.00E+00            (3f5.1)         1            !DZ Lay35
0.1  0.1  0.1
       100  1.00E+00            (3f5.1)         1            !DZ Lay36
0.1  0.1  0.1
       100  1.00E+00            (3f5.1)         1            !DZ Lay37
0.1  0.1  0.1
       100  1.00E+00            (3f5.1)         1            !DZ Lay38
0.1  0.1  0.1
       100  1.00E+00            (3f5.1)         1            !DZ Lay39
0.1  0.1  0.1
       100  1.00E+00            (3f5.1)         1            !DZ Lay40
0.1  0.1  0.1
       100  1.00E+00            (3f5.1)         1            !DZ Lay41
0.1  0.1  0.1
       100  1.00E+00            (3f5.1)         1            !DZ Lay42
0.1  0.1  0.1
       100  1.00E+00            (3f5.1)         1            !DZ Lay43
0.1  0.1  0.1
       100  1.00E+00            (3f5.1)         1            !DZ Lay44
0.1  0.1  0.1
       100  1.00E+00            (3f5.1)         1            !DZ Lay45
0.1  0.1  0.1
       100  1.00E+00            (3f5.1)         1            !DZ Lay46
0.1  0.1  0.1
       100  1.00E+00            (3f5.1)         1            !DZ Lay47
0.1  0.1  0.1
       100  1.00E+00            (3f5.1)         1            !DZ Lay48
0.1  0.1  0.1
       100  1.00E+00            (3f5.1)         1            !DZ Lay49
0.1  0.1  0.1
       100  1.00E+00            (3f5.1)         1            !DZ Lay50
0.1  0.1  0.1
       100  1.00E+00            (3f5.1)         1            !DZ Lay51
0.1  0.1  0.1
       100  1.00E+00            (3f5.1)         1            !DZ Lay52
0.1  0.1  0.1
       100  1.00E+00            (3f5.1)         1            !DZ Lay53
0.1  0.1  0.1
       100  1.00E+00            (3f5.1)         1            !DZ Lay54
0.1  0.1  0.1
       100  1.00E+00            (3f5.1)         1            !DZ Lay55
0.1  0.1  0.1
       100  1.00E+00            (3f5.1)         1            !DZ Lay56
0.1  0.1  0.1
       100  1.00E+00            (3f5.1)         1            !DZ Lay57
0.1  0.1  0.1
       100  1.00E+00            (3f5.1)         1            !DZ Lay58
0.1  0.1  0.1
       100  1.00E+00            (3f5.1)         1            !DZ Lay59
0.1  0.1  0.1
       100  1.00E+00            (3f5.1)         1            !DZ Lay60
0.1  0.1  0.1
       100  1.00E+00            (3f5.1)         1            !DZ Lay61
0.1  0.1  0.1
       100  1.00E+00            (3f5.1)         1            !DZ Lay62
0.1  0.1  0.1
       100  1.00E+00            (3f5.1)         1            !DZ Lay63
0.1  0.1  0.1
       100  1.00E+00            (3f5.1)         1            !DZ Lay64
0.1  0.1  0.1
       100  1.00E+00            (3f5.1)         1            !DZ Lay65
0.1  0.1  0.1
       100  1.00E+00            (3f5.1)         1            !DZ Lay66
0.1  0.1  0.1
       100  1.00E+00            (3f5.1)         1            !DZ Lay67
0.1  0.1  0.1
       100  1.00E+00            (3f5.1)         1            !DZ Lay68
0.1  0.1  0.1
       100  1.00E+00            (3f5.1)         1            !DZ Lay69
0.1  0.1  0.1
       100  1.00E+00            (3f5.1)         1            !DZ Lay70
0.1  0.1  0.1
       100  1.00E+00            (3f5.1)         1            !DZ Lay71
0.1  0.1  0.1
       100  1.00E+00            (3f5.1)         1            !DZ Lay72
0.1  0.1  0.1
       100  1.00E+00            (3f5.1)         1            !DZ Lay73
0.1  0.1  0.1
       100  1.00E+00            (3f5.1)         1            !DZ Lay74
0.1  0.1  0.1
       100  1.00E+00            (3f5.1)         1            !DZ Lay75
0.1  0.1  0.1
       100  1.00E+00            (3f5.1)         1            !DZ Lay76
0.1  0.1  0.1
       100  1.00E+00            (3f5.1)         1            !DZ Lay77
0.1  0.1  0.1
       100  1.00E+00            (3f5.1)         1            !DZ Lay78
0.1  0.1  0.1
       100  1.00E+00            (3f5.1)         1            !DZ Lay79
0.1  0.1  0.1
       100  1.00E+00            (3f5.1)         1            !DZ Lay80
0.1  0.1  0.1
       100  1.00E+00            (3f5.1)         1            !DZ Lay81
0.1  0.1  0.1
       100  1.00E+00            (3f5.1)         1            !DZ Lay82
0.1  0.1  0.1
       100  1.00E+00            (3f5.1)         1            !DZ Lay83
0.1  0.1  0.1
       100  1.00E+00            (3f5.1)         1            !DZ Lay84
0.1  0.1  0.1
       100  1.00E+00            (3f5.1)         1            !DZ Lay85
0.1  0.1  0.1
       100  1.00E+00            (3f5.1)         1            !DZ Lay86
0.1  0.1  0.1
       100  1.00E+00            (3f5.1)         1            !DZ Lay87
0.1  0.1  0.1
       100  1.00E+00            (3f5.1)         1            !DZ Lay88
0.1  0.1  0.1
       100  1.00E+00            (3f5.1)         1            !DZ Lay89
0.1  0.1  0.1
       100  1.00E+00            (3f5.1)         1            !DZ Lay90
0.1  0.1  0.1
       100  1.00E+00            (3f5.1)         1            !DZ Lay91
0.1  0.1  0.1
       100  1.00E+00            (3f5.1)         1            !DZ Lay92
0.1  0.1  0.1
       100  1.00E+00            (3f5.1)         1            !DZ Lay93
0.1  0.1  0.1
       100  1.00E+00            (3f5.1)         1            !DZ Lay94
0.1  0.1  0.1
       100  1.00E+00            (3f5.1)         1            !DZ Lay95
0.1  0.1  0.1
       100  1.00E+00            (3f5.1)         1            !DZ Lay96
0.1  0.1  0.1
       100  1.00E+00            (3f5.1)         1            !DZ Lay97
0.1  0.1  0.1
       100  1.00E+00            (3f5.1)         1            !DZ Lay98
0.1  0.1  0.1
       100  1.00E+00            (3f5.1)         1            !DZ Lay99
0.1  0.1  0.1
       100  1.00E+00            (3f5.1)         1            !DZ Lay200
0.1  0.1  0.1
       100  1.00E+00            (3f5.1)         1            !DZ Lay201
0.1  0.1  0.1
       100  1.00E+00            (3f5.1)         1            !DZ Lay202
0.1  0.1  0.1
       100  1.00E+00            (3f5.1)         1            !DZ Lay203
0.1  0.1  0.1
       100  1.00E+00            (3f5.1)         1            !DZ Lay204
0.1  0.1  0.1
       100  1.00E+00            (3f5.1)         1            !DZ Lay205
0.1  0.1  0.1
       100  1.00E+00            (3f5.1)         1            !DZ Lay206
0.1  0.1  0.1
       100  1.00E+00            (3f5.1)         1            !DZ Lay207
0.1  0.1  0.1
       100  1.00E+00            (3f5.1)         1            !DZ Lay208
0.1  0.1  0.1
       100  1.00E+00            (3f5.1)         1            !DZ Lay209
0.1  0.1  0.1
       100  1.00E+00            (3f5.1)         1            !DZ Lay210
0.1  0.1  0.1
         0 0.5000000                                          !PRSITY-LAYER 1
         0 0.5000000                                          !PRSITY-2
         0 0.5000000                                          !PRSITY-3
         0 0.5000000                                          !PRSITY-4
         0 0.5000000                                          !PRSITY-5
         0 0.5000000                                          !PRSITY-6
         0 0.5000000                                          !PRSITY-7
         0 0.5000000                                          !PRSITY-8
         0 0.5000000                                          !PRSITY-9
         0 0.5000000                                          !PRSITY-10
         0 0.5000000                                          !PRSITY-11
         0 0.5000000                                          !PRSITY-12
         0 0.5000000                                          !PRSITY-13
         0 0.5000000                                          !PRSITY-14
         0 0.5000000                                          !PRSITY-15
         0 0.5000000                                          !PRSITY-16
         0 0.5000000                                          !PRSITY-17
         0 0.5000000                                          !PRSITY-18
         0 0.5000000                                          !PRSITY-19
         0 0.5000000                                          !PRSITY-20
         0 0.5000000                                          !PRSITY-21
         0 0.5000000                                          !PRSITY-22
         0 0.5000000                                          !PRSITY-23
         0 0.5000000                                          !PRSITY-24
         0 0.5000000                                          !PRSITY-25
         0 0.5000000                                          !PRSITY-26
         0 0.5000000                                          !PRSITY-27
         0 0.5000000                                          !PRSITY-28
         0 0.5000000                                          !PRSITY-29
         0 0.5000000                                          !PRSITY-30
         0 0.5000000                                          !PRSITY-31
         0 0.5000000                                          !PRSITY-32
         0 0.5000000                                          !PRSITY-33
         0 0.5000000                                          !PRSITY-34
         0 0.5000000                                          !PRSITY-35
         0 0.5000000                                          !PRSITY-36
         0 0.5000000                                          !PRSITY-37
         0 0.5000000                                          !PRSITY-38
         0 0.5000000                                          !PRSITY-39
         0 0.5000000                                          !PRSITY-40
         0 0.5000000                                          !PRSITY-41
         0 0.5000000                                          !PRSITY-42
         0 0.5000000                                          !PRSITY-43
         0 0.5000000                                          !PRSITY-44
         0 0.5000000                                          !PRSITY-45
         0 0.5000000                                          !PRSITY-46
         0 0.5000000                                          !PRSITY-47
         0 0.5000000                                          !PRSITY-48
         0 0.5000000                                          !PRSITY-49
         0 0.5000000                                          !PRSITY-50
         0 0.5000000                                          !PRSITY-51
         0 0.5000000                                          !PRSITY-52
         0 0.5000000                                          !PRSITY-53
         0 0.5000000                                          !PRSITY-54
         0 0.5000000                                          !PRSITY-55
         0 0.5000000                                          !PRSITY-56
         0 0.5000000                                          !PRSITY-57
         0 0.5000000                                          !PRSITY-58
         0 0.5000000                                          !PRSITY-59
         0 0.5000000                                          !PRSITY-60
         0 0.5000000                                          !PRSITY-61
         0 0.5000000                                          !PRSITY-62
         0 0.5000000                                          !PRSITY-63
         0 0.5000000                                          !PRSITY-64
         0 0.5000000                                          !PRSITY-65
         0 0.5000000                                          !PRSITY-66
         0 0.5000000                                          !PRSITY-67
         0 0.5000000                                          !PRSITY-68
         0 0.5000000                                          !PRSITY-69
         0 0.5000000                                          !PRSITY-70
         0 0.5000000                                          !PRSITY-71
         0 0.5000000                                          !PRSITY-72
         0 0.5000000                                          !PRSITY-73
         0 0.5000000                                          !PRSITY-74
         0 0.5000000                                          !PRSITY-75
         0 0.5000000                                          !PRSITY-76
         0 0.5000000                                          !PRSITY-77
         0 0.5000000                                          !PRSITY-78
         0 0.5000000                                          !PRSITY-79
         0 0.5000000                                          !PRSITY-80
         0 0.5000000                                          !PRSITY-81
         0 0.5000000                                          !PRSITY-82
         0 0.5000000                                          !PRSITY-83
         0 0.5000000                                          !PRSITY-84
         0 0.5000000                                          !PRSITY-85
         0 0.5000000                                          !PRSITY-86
         0 0.5000000                                          !PRSITY-87
         0 0.5000000                                          !PRSITY-88
         0 0.5000000                                          !PRSITY-89
         0 0.5000000                                          !PRSITY-90
         0 0.5000000                                          !PRSITY-91
         0 0.5000000                                          !PRSITY-92
         0 0.5000000                                          !PRSITY-93
         0 0.5000000                                          !PRSITY-94
         0 0.5000000                                          !PRSITY-95
         0 0.5000000                                          !PRSITY-96
         0 0.5000000                                          !PRSITY-97
         0 0.5000000                                          !PRSITY-98
         0 0.5000000                                          !PRSITY-99
         0 0.5000000                                          !PRSITY-100
         0 0.5000000                                          !PRSITY-101
         0 0.5000000                                          !PRSITY-102
         0 0.5000000                                          !PRSITY-103
         0 0.5000000                                          !PRSITY-104
         0 0.5000000                                          !PRSITY-105
         0 0.5000000                                          !PRSITY-106
         0 0.5000000                                          !PRSITY-107
         0 0.5000000                                          !PRSITY-108
         0 0.5000000                                          !PRSITY-109
         0 0.5000000                                          !PRSITY-110
         0 0.5000000                                          !PRSITY-111
         0 0.5000000                                          !PRSITY-112
         0 0.5000000                                          !PRSITY-113
         0 0.5000000                                          !PRSITY-114
         0 0.5000000                                          !PRSITY-115
         0 0.5000000                                          !PRSITY-116
         0 0.5000000                                          !PRSITY-117
         0 0.5000000                                          !PRSITY-118
         0 0.5000000                                          !PRSITY-119
         0 0.5000000                                          !PRSITY-120
         0 0.5000000                                          !PRSITY-121
         0 0.5000000                                          !PRSITY-122
         0 0.5000000                                          !PRSITY-123
         0 0.5000000                                          !PRSITY-124
         0 0.5000000                                          !PRSITY-125
         0 0.5000000                                          !PRSITY-126
         0 0.5000000                                          !PRSITY-127
         0 0.5000000                                          !PRSITY-128
         0 0.5000000                                          !PRSITY-129
         0 0.5000000                                          !PRSITY-130
         0 0.5000000                                          !PRSITY-131
         0 0.5000000                                          !PRSITY-132
         0 0.5000000                                          !PRSITY-133
         0 0.5000000                                          !PRSITY-134
         0 0.5000000                                          !PRSITY-135
         0 0.5000000                                          !PRSITY-136
         0 0.5000000                                          !PRSITY-137
         0 0.5000000                                          !PRSITY-138
         0 0.5000000                                          !PRSITY-139
         0 0.5000000                                          !PRSITY-140
         0 0.5000000                                          !PRSITY-141
         0 0.5000000                                          !PRSITY-142
         0 0.5000000                                          !PRSITY-143
         0 0.5000000                                          !PRSITY-144
         0 0.5000000                                          !PRSITY-145
         0 0.5000000                                          !PRSITY-146
         0 0.5000000                                          !PRSITY-147
         0 0.5000000                                          !PRSITY-148
         0 0.5000000                                          !PRSITY-149
         0 0.5000000                                          !PRSITY-150